# RCH6 input file, prepared by MF5to6 on 4/24/2020 at 15:15:01.

BEGIN Options
  READASARRAYS
END Options

BEGIN PERIOD 1
  RECHARGE
    CONSTANT   0.10000000E-03
END PERIOD

BEGIN PERIOD 2
  RECHARGE
    CONSTANT   0.50231070E-04
END PERIOD

BEGIN PERIOD 3
  RECHARGE
    CONSTANT   0.51633280E-04
END PERIOD

BEGIN PERIOD 4
  RECHARGE
    CONSTANT   0.53049860E-04
END PERIOD

BEGIN PERIOD 5
  RECHARGE
    CONSTANT   0.54480390E-04
END PERIOD

BEGIN PERIOD 6
  RECHARGE
    CONSTANT   0.55924450E-04
END PERIOD

BEGIN PERIOD 7
  RECHARGE
    CONSTANT   0.57381600E-04
END PERIOD

BEGIN PERIOD 8
  RECHARGE
    CONSTANT   0.58851420E-04
END PERIOD

BEGIN PERIOD 9
  RECHARGE
    CONSTANT   0.60333470E-04
END PERIOD

BEGIN PERIOD 10
  RECHARGE
    CONSTANT   0.61827300E-04
END PERIOD

BEGIN PERIOD 11
  RECHARGE
    CONSTANT   0.63332470E-04
END PERIOD

BEGIN PERIOD 12
  RECHARGE
    CONSTANT   0.64848540E-04
END PERIOD

BEGIN PERIOD 13
  RECHARGE
    CONSTANT   0.66375050E-04
END PERIOD

BEGIN PERIOD 14
  RECHARGE
    CONSTANT   0.67911550E-04
END PERIOD

BEGIN PERIOD 15
  RECHARGE
    CONSTANT   0.69457590E-04
END PERIOD

BEGIN PERIOD 16
  RECHARGE
    CONSTANT   0.71012710E-04
END PERIOD

BEGIN PERIOD 17
  RECHARGE
    CONSTANT   0.72576430E-04
END PERIOD

BEGIN PERIOD 18
  RECHARGE
    CONSTANT   0.74148310E-04
END PERIOD

BEGIN PERIOD 19
  RECHARGE
    CONSTANT   0.75727870E-04
END PERIOD

BEGIN PERIOD 20
  RECHARGE
    CONSTANT   0.77314630E-04
END PERIOD

BEGIN PERIOD 21
  RECHARGE
    CONSTANT   0.78908150E-04
END PERIOD

BEGIN PERIOD 22
  RECHARGE
    CONSTANT   0.80507920E-04
END PERIOD

BEGIN PERIOD 23
  RECHARGE
    CONSTANT   0.82113490E-04
END PERIOD

BEGIN PERIOD 24
  RECHARGE
    CONSTANT   0.83724370E-04
END PERIOD

BEGIN PERIOD 25
  RECHARGE
    CONSTANT   0.85340090E-04
END PERIOD

BEGIN PERIOD 26
  RECHARGE
    CONSTANT   0.86960160E-04
END PERIOD

BEGIN PERIOD 27
  RECHARGE
    CONSTANT   0.88584110E-04
END PERIOD

BEGIN PERIOD 28
  RECHARGE
    CONSTANT   0.90211460E-04
END PERIOD

BEGIN PERIOD 29
  RECHARGE
    CONSTANT   0.91841710E-04
END PERIOD

BEGIN PERIOD 30
  RECHARGE
    CONSTANT   0.93474380E-04
END PERIOD

BEGIN PERIOD 31
  RECHARGE
    CONSTANT   0.95109000E-04
END PERIOD

BEGIN PERIOD 32
  RECHARGE
    CONSTANT   0.96745060E-04
END PERIOD

BEGIN PERIOD 33
  RECHARGE
    CONSTANT   0.98382090E-04
END PERIOD

BEGIN PERIOD 34
  RECHARGE
    CONSTANT   0.10001960E-03
END PERIOD

BEGIN PERIOD 35
  RECHARGE
    CONSTANT   0.10165710E-03
END PERIOD

BEGIN PERIOD 36
  RECHARGE
    CONSTANT   0.10329410E-03
END PERIOD

BEGIN PERIOD 37
  RECHARGE
    CONSTANT   0.10493020E-03
END PERIOD

BEGIN PERIOD 38
  RECHARGE
    CONSTANT   0.10656470E-03
END PERIOD

BEGIN PERIOD 39
  RECHARGE
    CONSTANT   0.10819740E-03
END PERIOD

BEGIN PERIOD 40
  RECHARGE
    CONSTANT   0.10982760E-03
END PERIOD

BEGIN PERIOD 41
  RECHARGE
    CONSTANT   0.11145480E-03
END PERIOD

BEGIN PERIOD 42
  RECHARGE
    CONSTANT   0.11307870E-03
END PERIOD

BEGIN PERIOD 43
  RECHARGE
    CONSTANT   0.11469870E-03
END PERIOD

BEGIN PERIOD 44
  RECHARGE
    CONSTANT   0.11631430E-03
END PERIOD

BEGIN PERIOD 45
  RECHARGE
    CONSTANT   0.11792500E-03
END PERIOD

BEGIN PERIOD 46
  RECHARGE
    CONSTANT   0.11953050E-03
END PERIOD

BEGIN PERIOD 47
  RECHARGE
    CONSTANT   0.12113010E-03
END PERIOD

BEGIN PERIOD 48
  RECHARGE
    CONSTANT   0.12272340E-03
END PERIOD

BEGIN PERIOD 49
  RECHARGE
    CONSTANT   0.12431010E-03
END PERIOD

BEGIN PERIOD 50
  RECHARGE
    CONSTANT   0.12588940E-03
END PERIOD

BEGIN PERIOD 51
  RECHARGE
    CONSTANT   0.12746110E-03
END PERIOD

BEGIN PERIOD 52
  RECHARGE
    CONSTANT   0.12902460E-03
END PERIOD

BEGIN PERIOD 53
  RECHARGE
    CONSTANT   0.13057950E-03
END PERIOD

BEGIN PERIOD 54
  RECHARGE
    CONSTANT   0.13212540E-03
END PERIOD

BEGIN PERIOD 55
  RECHARGE
    CONSTANT   0.13366160E-03
END PERIOD

BEGIN PERIOD 56
  RECHARGE
    CONSTANT   0.13518790E-03
END PERIOD

BEGIN PERIOD 57
  RECHARGE
    CONSTANT   0.13670370E-03
END PERIOD

BEGIN PERIOD 58
  RECHARGE
    CONSTANT   0.13820860E-03
END PERIOD

BEGIN PERIOD 59
  RECHARGE
    CONSTANT   0.13970220E-03
END PERIOD

BEGIN PERIOD 60
  RECHARGE
    CONSTANT   0.14118390E-03
END PERIOD

BEGIN PERIOD 61
  RECHARGE
    CONSTANT   0.14265340E-03
END PERIOD

BEGIN PERIOD 62
  RECHARGE
    CONSTANT   0.14411030E-03
END PERIOD

BEGIN PERIOD 63
  RECHARGE
    CONSTANT   0.14555400E-03
END PERIOD

BEGIN PERIOD 64
  RECHARGE
    CONSTANT   0.14698420E-03
END PERIOD

BEGIN PERIOD 65
  RECHARGE
    CONSTANT   0.14840050E-03
END PERIOD

BEGIN PERIOD 66
  RECHARGE
    CONSTANT   0.14980230E-03
END PERIOD

BEGIN PERIOD 67
  RECHARGE
    CONSTANT   0.15118940E-03
END PERIOD

BEGIN PERIOD 68
  RECHARGE
    CONSTANT   0.15256120E-03
END PERIOD

BEGIN PERIOD 69
  RECHARGE
    CONSTANT   0.15391750E-03
END PERIOD

BEGIN PERIOD 70
  RECHARGE
    CONSTANT   0.15525770E-03
END PERIOD

BEGIN PERIOD 71
  RECHARGE
    CONSTANT   0.15658150E-03
END PERIOD

BEGIN PERIOD 72
  RECHARGE
    CONSTANT   0.15788850E-03
END PERIOD

BEGIN PERIOD 73
  RECHARGE
    CONSTANT   0.15917820E-03
END PERIOD

BEGIN PERIOD 74
  RECHARGE
    CONSTANT   0.16045050E-03
END PERIOD

BEGIN PERIOD 75
  RECHARGE
    CONSTANT   0.16170470E-03
END PERIOD

BEGIN PERIOD 76
  RECHARGE
    CONSTANT   0.16294060E-03
END PERIOD

BEGIN PERIOD 77
  RECHARGE
    CONSTANT   0.16415780E-03
END PERIOD

BEGIN PERIOD 78
  RECHARGE
    CONSTANT   0.16535590E-03
END PERIOD

BEGIN PERIOD 79
  RECHARGE
    CONSTANT   0.16653460E-03
END PERIOD

BEGIN PERIOD 80
  RECHARGE
    CONSTANT   0.16769360E-03
END PERIOD

BEGIN PERIOD 81
  RECHARGE
    CONSTANT   0.16883240E-03
END PERIOD

BEGIN PERIOD 82
  RECHARGE
    CONSTANT   0.16995080E-03
END PERIOD

BEGIN PERIOD 83
  RECHARGE
    CONSTANT   0.17104840E-03
END PERIOD

BEGIN PERIOD 84
  RECHARGE
    CONSTANT   0.17212490E-03
END PERIOD

BEGIN PERIOD 85
  RECHARGE
    CONSTANT   0.17317990E-03
END PERIOD

BEGIN PERIOD 86
  RECHARGE
    CONSTANT   0.17421320E-03
END PERIOD

BEGIN PERIOD 87
  RECHARGE
    CONSTANT   0.17522450E-03
END PERIOD

BEGIN PERIOD 88
  RECHARGE
    CONSTANT   0.17621340E-03
END PERIOD

BEGIN PERIOD 89
  RECHARGE
    CONSTANT   0.17717970E-03
END PERIOD

BEGIN PERIOD 90
  RECHARGE
    CONSTANT   0.17812300E-03
END PERIOD

BEGIN PERIOD 91
  RECHARGE
    CONSTANT   0.17904310E-03
END PERIOD

BEGIN PERIOD 92
  RECHARGE
    CONSTANT   0.17993970E-03
END PERIOD

BEGIN PERIOD 94
  RECHARGE
    CONSTANT   0.18081260E-03
END PERIOD

BEGIN PERIOD 95
  RECHARGE
    CONSTANT   0.18166150E-03
END PERIOD

BEGIN PERIOD 96
  RECHARGE
    CONSTANT   0.18248610E-03
END PERIOD

BEGIN PERIOD 97
  RECHARGE
    CONSTANT   0.18328620E-03
END PERIOD

BEGIN PERIOD 98
  RECHARGE
    CONSTANT   0.18406150E-03
END PERIOD

BEGIN PERIOD 99
  RECHARGE
    CONSTANT   0.18481190E-03
END PERIOD

BEGIN PERIOD 100
  RECHARGE
    CONSTANT   0.18553700E-03
END PERIOD

BEGIN PERIOD 101
  RECHARGE
    CONSTANT   0.18623680E-03
END PERIOD

BEGIN PERIOD 102
  RECHARGE
    CONSTANT   0.18691090E-03
END PERIOD

BEGIN PERIOD 103
  RECHARGE
    CONSTANT   0.18755920E-03
END PERIOD

BEGIN PERIOD 104
  RECHARGE
    CONSTANT   0.18818150E-03
END PERIOD

BEGIN PERIOD 105
  RECHARGE
    CONSTANT   0.18877760E-03
END PERIOD

BEGIN PERIOD 106
  RECHARGE
    CONSTANT   0.18934730E-03
END PERIOD

BEGIN PERIOD 107
  RECHARGE
    CONSTANT   0.18989040E-03
END PERIOD

BEGIN PERIOD 108
  RECHARGE
    CONSTANT   0.19040690E-03
END PERIOD

BEGIN PERIOD 109
  RECHARGE
    CONSTANT   0.19089640E-03
END PERIOD

BEGIN PERIOD 110
  RECHARGE
    CONSTANT   0.19135900E-03
END PERIOD

BEGIN PERIOD 111
  RECHARGE
    CONSTANT   0.19179440E-03
END PERIOD

BEGIN PERIOD 112
  RECHARGE
    CONSTANT   0.19220260E-03
END PERIOD

BEGIN PERIOD 113
  RECHARGE
    CONSTANT   0.19258330E-03
END PERIOD

BEGIN PERIOD 114
  RECHARGE
    CONSTANT   0.19293660E-03
END PERIOD

BEGIN PERIOD 115
  RECHARGE
    CONSTANT   0.19326220E-03
END PERIOD

BEGIN PERIOD 116
  RECHARGE
    CONSTANT   0.19356010E-03
END PERIOD

BEGIN PERIOD 117
  RECHARGE
    CONSTANT   0.19383030E-03
END PERIOD

BEGIN PERIOD 118
  RECHARGE
    CONSTANT   0.19407250E-03
END PERIOD

BEGIN PERIOD 119
  RECHARGE
    CONSTANT   0.19428680E-03
END PERIOD

BEGIN PERIOD 120
  RECHARGE
    CONSTANT   0.19447300E-03
END PERIOD

BEGIN PERIOD 121
  RECHARGE
    CONSTANT   0.19463130E-03
END PERIOD

BEGIN PERIOD 122
  RECHARGE
    CONSTANT   0.19476130E-03
END PERIOD

BEGIN PERIOD 123
  RECHARGE
    CONSTANT   0.19486320E-03
END PERIOD

BEGIN PERIOD 124
  RECHARGE
    CONSTANT   0.19493700E-03
END PERIOD

BEGIN PERIOD 125
  RECHARGE
    CONSTANT   0.19498250E-03
END PERIOD

BEGIN PERIOD 126
  RECHARGE
    CONSTANT   0.19499980E-03
END PERIOD

BEGIN PERIOD 127
  RECHARGE
    CONSTANT   0.19498890E-03
END PERIOD

BEGIN PERIOD 128
  RECHARGE
    CONSTANT   0.19494970E-03
END PERIOD

BEGIN PERIOD 129
  RECHARGE
    CONSTANT   0.19488240E-03
END PERIOD

BEGIN PERIOD 130
  RECHARGE
    CONSTANT   0.19478680E-03
END PERIOD

BEGIN PERIOD 131
  RECHARGE
    CONSTANT   0.19466310E-03
END PERIOD

BEGIN PERIOD 132
  RECHARGE
    CONSTANT   0.19451130E-03
END PERIOD

BEGIN PERIOD 133
  RECHARGE
    CONSTANT   0.19433130E-03
END PERIOD

BEGIN PERIOD 134
  RECHARGE
    CONSTANT   0.19412340E-03
END PERIOD

BEGIN PERIOD 135
  RECHARGE
    CONSTANT   0.19388740E-03
END PERIOD

BEGIN PERIOD 136
  RECHARGE
    CONSTANT   0.19362360E-03
END PERIOD

BEGIN PERIOD 137
  RECHARGE
    CONSTANT   0.19333200E-03
END PERIOD

BEGIN PERIOD 138
  RECHARGE
    CONSTANT   0.19301260E-03
END PERIOD

BEGIN PERIOD 139
  RECHARGE
    CONSTANT   0.19266560E-03
END PERIOD

BEGIN PERIOD 140
  RECHARGE
    CONSTANT   0.19229110E-03
END PERIOD

BEGIN PERIOD 141
  RECHARGE
    CONSTANT   0.19188910E-03
END PERIOD

BEGIN PERIOD 142
  RECHARGE
    CONSTANT   0.19145980E-03
END PERIOD

BEGIN PERIOD 143
  RECHARGE
    CONSTANT   0.19100340E-03
END PERIOD

BEGIN PERIOD 144
  RECHARGE
    CONSTANT   0.19051990E-03
END PERIOD

BEGIN PERIOD 145
  RECHARGE
    CONSTANT   0.19000950E-03
END PERIOD

BEGIN PERIOD 146
  RECHARGE
    CONSTANT   0.18947240E-03
END PERIOD

BEGIN PERIOD 147
  RECHARGE
    CONSTANT   0.18890870E-03
END PERIOD

BEGIN PERIOD 148
  RECHARGE
    CONSTANT   0.18831850E-03
END PERIOD

BEGIN PERIOD 149
  RECHARGE
    CONSTANT   0.18770220E-03
END PERIOD

BEGIN PERIOD 150
  RECHARGE
    CONSTANT   0.18705970E-03
END PERIOD

BEGIN PERIOD 151
  RECHARGE
    CONSTANT   0.18639140E-03
END PERIOD

BEGIN PERIOD 152
  RECHARGE
    CONSTANT   0.18569740E-03
END PERIOD

BEGIN PERIOD 153
  RECHARGE
    CONSTANT   0.18497800E-03
END PERIOD

BEGIN PERIOD 154
  RECHARGE
    CONSTANT   0.18423330E-03
END PERIOD

BEGIN PERIOD 155
  RECHARGE
    CONSTANT   0.18346360E-03
END PERIOD

BEGIN PERIOD 156
  RECHARGE
    CONSTANT   0.18266910E-03
END PERIOD

BEGIN PERIOD 157
  RECHARGE
    CONSTANT   0.18185000E-03
END PERIOD

BEGIN PERIOD 158
  RECHARGE
    CONSTANT   0.18100660E-03
END PERIOD

BEGIN PERIOD 159
  RECHARGE
    CONSTANT   0.18013910E-03
END PERIOD

BEGIN PERIOD 160
  RECHARGE
    CONSTANT   0.17924790E-03
END PERIOD

BEGIN PERIOD 161
  RECHARGE
    CONSTANT   0.17833300E-03
END PERIOD

BEGIN PERIOD 162
  RECHARGE
    CONSTANT   0.17739490E-03
END PERIOD

BEGIN PERIOD 163
  RECHARGE
    CONSTANT   0.17643380E-03
END PERIOD

BEGIN PERIOD 164
  RECHARGE
    CONSTANT   0.17545000E-03
END PERIOD

BEGIN PERIOD 165
  RECHARGE
    CONSTANT   0.17444380E-03
END PERIOD

BEGIN PERIOD 166
  RECHARGE
    CONSTANT   0.17341540E-03
END PERIOD

BEGIN PERIOD 167
  RECHARGE
    CONSTANT   0.17236530E-03
END PERIOD

BEGIN PERIOD 168
  RECHARGE
    CONSTANT   0.17129360E-03
END PERIOD

BEGIN PERIOD 169
  RECHARGE
    CONSTANT   0.17020070E-03
END PERIOD

BEGIN PERIOD 170
  RECHARGE
    CONSTANT   0.16908700E-03
END PERIOD

BEGIN PERIOD 171
  RECHARGE
    CONSTANT   0.16795280E-03
END PERIOD

BEGIN PERIOD 172
  RECHARGE
    CONSTANT   0.16679840E-03
END PERIOD

BEGIN PERIOD 173
  RECHARGE
    CONSTANT   0.16562410E-03
END PERIOD

BEGIN PERIOD 174
  RECHARGE
    CONSTANT   0.16443030E-03
END PERIOD

BEGIN PERIOD 175
  RECHARGE
    CONSTANT   0.16321740E-03
END PERIOD

BEGIN PERIOD 176
  RECHARGE
    CONSTANT   0.16198570E-03
END PERIOD

BEGIN PERIOD 177
  RECHARGE
    CONSTANT   0.16073560E-03
END PERIOD

BEGIN PERIOD 178
  RECHARGE
    CONSTANT   0.15946740E-03
END PERIOD

BEGIN PERIOD 179
  RECHARGE
    CONSTANT   0.15818150E-03
END PERIOD

BEGIN PERIOD 180
  RECHARGE
    CONSTANT   0.15687840E-03
END PERIOD

BEGIN PERIOD 181
  RECHARGE
    CONSTANT   0.15555840E-03
END PERIOD

BEGIN PERIOD 182
  RECHARGE
    CONSTANT   0.15422190E-03
END PERIOD

BEGIN PERIOD 183
  RECHARGE
    CONSTANT   0.15286920E-03
END PERIOD

BEGIN PERIOD 184
  RECHARGE
    CONSTANT   0.15150080E-03
END PERIOD

BEGIN PERIOD 185
  RECHARGE
    CONSTANT   0.15011720E-03
END PERIOD

BEGIN PERIOD 186
  RECHARGE
    CONSTANT   0.14871860E-03
END PERIOD

BEGIN PERIOD 187
  RECHARGE
    CONSTANT   0.14730560E-03
END PERIOD

BEGIN PERIOD 188
  RECHARGE
    CONSTANT   0.14587850E-03
END PERIOD

BEGIN PERIOD 189
  RECHARGE
    CONSTANT   0.14443780E-03
END PERIOD

BEGIN PERIOD 190
  RECHARGE
    CONSTANT   0.14298390E-03
END PERIOD

BEGIN PERIOD 191
  RECHARGE
    CONSTANT   0.14151720E-03
END PERIOD

BEGIN PERIOD 192
  RECHARGE
    CONSTANT   0.14003820E-03
END PERIOD

BEGIN PERIOD 193
  RECHARGE
    CONSTANT   0.13854720E-03
END PERIOD

BEGIN PERIOD 194
  RECHARGE
    CONSTANT   0.13704490E-03
END PERIOD

BEGIN PERIOD 195
  RECHARGE
    CONSTANT   0.13553150E-03
END PERIOD

BEGIN PERIOD 196
  RECHARGE
    CONSTANT   0.13400750E-03
END PERIOD

BEGIN PERIOD 197
  RECHARGE
    CONSTANT   0.13247350E-03
END PERIOD

BEGIN PERIOD 198
  RECHARGE
    CONSTANT   0.13092980E-03
END PERIOD

BEGIN PERIOD 199
  RECHARGE
    CONSTANT   0.12937690E-03
END PERIOD

BEGIN PERIOD 200
  RECHARGE
    CONSTANT   0.12781530E-03
END PERIOD

BEGIN PERIOD 201
  RECHARGE
    CONSTANT   0.12624540E-03
END PERIOD

BEGIN PERIOD 202
  RECHARGE
    CONSTANT   0.12466770E-03
END PERIOD

BEGIN PERIOD 203
  RECHARGE
    CONSTANT   0.12308270E-03
END PERIOD

BEGIN PERIOD 204
  RECHARGE
    CONSTANT   0.12149080E-03
END PERIOD

BEGIN PERIOD 205
  RECHARGE
    CONSTANT   0.11989260E-03
END PERIOD

BEGIN PERIOD 206
  RECHARGE
    CONSTANT   0.11828840E-03
END PERIOD

BEGIN PERIOD 207
  RECHARGE
    CONSTANT   0.11667880E-03
END PERIOD

BEGIN PERIOD 208
  RECHARGE
    CONSTANT   0.11506430E-03
END PERIOD

BEGIN PERIOD 209
  RECHARGE
    CONSTANT   0.11344520E-03
END PERIOD

BEGIN PERIOD 210
  RECHARGE
    CONSTANT   0.11182220E-03
END PERIOD

BEGIN PERIOD 211
  RECHARGE
    CONSTANT   0.11019570E-03
END PERIOD

BEGIN PERIOD 212
  RECHARGE
    CONSTANT   0.10856610E-03
END PERIOD

BEGIN PERIOD 213
  RECHARGE
    CONSTANT   0.10693400E-03
END PERIOD

BEGIN PERIOD 214
  RECHARGE
    CONSTANT   0.10529980E-03
END PERIOD

BEGIN PERIOD 215
  RECHARGE
    CONSTANT   0.10366410E-03
END PERIOD

BEGIN PERIOD 216
  RECHARGE
    CONSTANT   0.10202720E-03
END PERIOD

BEGIN PERIOD 217
  RECHARGE
    CONSTANT   0.10038980E-03
END PERIOD

BEGIN PERIOD 218
  RECHARGE
    CONSTANT   0.98752230E-04
END PERIOD

BEGIN PERIOD 219
  RECHARGE
    CONSTANT   0.97115040E-04
END PERIOD

BEGIN PERIOD 220
  RECHARGE
    CONSTANT   0.95478710E-04
END PERIOD

BEGIN PERIOD 221
  RECHARGE
    CONSTANT   0.93843720E-04
END PERIOD

BEGIN PERIOD 222
  RECHARGE
    CONSTANT   0.92210570E-04
END PERIOD

BEGIN PERIOD 223
  RECHARGE
    CONSTANT   0.90579740E-04
END PERIOD

BEGIN PERIOD 224
  RECHARGE
    CONSTANT   0.88951700E-04
END PERIOD

BEGIN PERIOD 225
  RECHARGE
    CONSTANT   0.87326930E-04
END PERIOD

BEGIN PERIOD 226
  RECHARGE
    CONSTANT   0.85705940E-04
END PERIOD

BEGIN PERIOD 227
  RECHARGE
    CONSTANT   0.84089200E-04
END PERIOD

BEGIN PERIOD 228
  RECHARGE
    CONSTANT   0.82477170E-04
END PERIOD

BEGIN PERIOD 229
  RECHARGE
    CONSTANT   0.80870360E-04
END PERIOD

BEGIN PERIOD 230
  RECHARGE
    CONSTANT   0.79269240E-04
END PERIOD

BEGIN PERIOD 231
  RECHARGE
    CONSTANT   0.77674270E-04
END PERIOD

BEGIN PERIOD 232
  RECHARGE
    CONSTANT   0.76085930E-04
END PERIOD

BEGIN PERIOD 233
  RECHARGE
    CONSTANT   0.74504710E-04
END PERIOD

BEGIN PERIOD 234
  RECHARGE
    CONSTANT   0.72931060E-04
END PERIOD

BEGIN PERIOD 235
  RECHARGE
    CONSTANT   0.71365440E-04
END PERIOD

BEGIN PERIOD 236
  RECHARGE
    CONSTANT   0.69808350E-04
END PERIOD

BEGIN PERIOD 237
  RECHARGE
    CONSTANT   0.68260220E-04
END PERIOD

BEGIN PERIOD 238
  RECHARGE
    CONSTANT   0.66721510E-04
END PERIOD

BEGIN PERIOD 239
  RECHARGE
    CONSTANT   0.65192700E-04
END PERIOD

BEGIN PERIOD 240
  RECHARGE
    CONSTANT   0.63674230E-04
END PERIOD

BEGIN PERIOD 241
  RECHARGE
    CONSTANT   0.62166560E-04
END PERIOD

BEGIN PERIOD 242
  RECHARGE
    CONSTANT   0.60670130E-04
END PERIOD

BEGIN PERIOD 243
  RECHARGE
    CONSTANT   0.59185380E-04
END PERIOD

BEGIN PERIOD 244
  RECHARGE
    CONSTANT   0.57712760E-04
END PERIOD

BEGIN PERIOD 245
  RECHARGE
    CONSTANT   0.56252710E-04
END PERIOD

BEGIN PERIOD 246
  RECHARGE
    CONSTANT   0.54805650E-04
END PERIOD

BEGIN PERIOD 247
  RECHARGE
    CONSTANT   0.53372020E-04
END PERIOD

BEGIN PERIOD 248
  RECHARGE
    CONSTANT   0.51952250E-04
END PERIOD

BEGIN PERIOD 249
  RECHARGE
    CONSTANT   0.50546750E-04
END PERIOD

BEGIN PERIOD 250
  RECHARGE
    CONSTANT   0.49155950E-04
END PERIOD

BEGIN PERIOD 251
  RECHARGE
    CONSTANT   0.47780260E-04
END PERIOD

BEGIN PERIOD 252
  RECHARGE
    CONSTANT   0.46420090E-04
END PERIOD

BEGIN PERIOD 253
  RECHARGE
    CONSTANT   0.45075830E-04
END PERIOD

BEGIN PERIOD 254
  RECHARGE
    CONSTANT   0.43747890E-04
END PERIOD

BEGIN PERIOD 255
  RECHARGE
    CONSTANT   0.42436670E-04
END PERIOD

BEGIN PERIOD 256
  RECHARGE
    CONSTANT   0.41142550E-04
END PERIOD

BEGIN PERIOD 257
  RECHARGE
    CONSTANT   0.39865920E-04
END PERIOD

BEGIN PERIOD 258
  RECHARGE
    CONSTANT   0.38607160E-04
END PERIOD

BEGIN PERIOD 259
  RECHARGE
    CONSTANT   0.37366640E-04
END PERIOD

BEGIN PERIOD 260
  RECHARGE
    CONSTANT   0.36144730E-04
END PERIOD

BEGIN PERIOD 261
  RECHARGE
    CONSTANT   0.34941790E-04
END PERIOD

BEGIN PERIOD 262
  RECHARGE
    CONSTANT   0.33758190E-04
END PERIOD

BEGIN PERIOD 263
  RECHARGE
    CONSTANT   0.32594270E-04
END PERIOD

BEGIN PERIOD 264
  RECHARGE
    CONSTANT   0.31450370E-04
END PERIOD

BEGIN PERIOD 265
  RECHARGE
    CONSTANT   0.30326850E-04
END PERIOD

BEGIN PERIOD 266
  RECHARGE
    CONSTANT   0.29224030E-04
END PERIOD

BEGIN PERIOD 267
  RECHARGE
    CONSTANT   0.28142240E-04
END PERIOD

BEGIN PERIOD 268
  RECHARGE
    CONSTANT   0.27081800E-04
END PERIOD

BEGIN PERIOD 269
  RECHARGE
    CONSTANT   0.26043020E-04
END PERIOD

BEGIN PERIOD 270
  RECHARGE
    CONSTANT   0.25026220E-04
END PERIOD

BEGIN PERIOD 271
  RECHARGE
    CONSTANT   0.24031700E-04
END PERIOD

BEGIN PERIOD 272
  RECHARGE
    CONSTANT   0.23059750E-04
END PERIOD

BEGIN PERIOD 273
  RECHARGE
    CONSTANT   0.22110660E-04
END PERIOD

BEGIN PERIOD 274
  RECHARGE
    CONSTANT   0.21184720E-04
END PERIOD

BEGIN PERIOD 275
  RECHARGE
    CONSTANT   0.20282200E-04
END PERIOD

BEGIN PERIOD 276
  RECHARGE
    CONSTANT   0.19403360E-04
END PERIOD

BEGIN PERIOD 277
  RECHARGE
    CONSTANT   0.18548470E-04
END PERIOD

BEGIN PERIOD 278
  RECHARGE
    CONSTANT   0.17717780E-04
END PERIOD

BEGIN PERIOD 279
  RECHARGE
    CONSTANT   0.16911540E-04
END PERIOD

BEGIN PERIOD 280
  RECHARGE
    CONSTANT   0.16129990E-04
END PERIOD

BEGIN PERIOD 281
  RECHARGE
    CONSTANT   0.15373360E-04
END PERIOD

BEGIN PERIOD 282
  RECHARGE
    CONSTANT   0.14641880E-04
END PERIOD

BEGIN PERIOD 283
  RECHARGE
    CONSTANT   0.13935760E-04
END PERIOD

BEGIN PERIOD 284
  RECHARGE
    CONSTANT   0.13255210E-04
END PERIOD

BEGIN PERIOD 285
  RECHARGE
    CONSTANT   0.12600440E-04
END PERIOD

BEGIN PERIOD 286
  RECHARGE
    CONSTANT   0.11971630E-04
END PERIOD

BEGIN PERIOD 287
  RECHARGE
    CONSTANT   0.11368980E-04
END PERIOD

BEGIN PERIOD 288
  RECHARGE
    CONSTANT   0.10792670E-04
END PERIOD

BEGIN PERIOD 289
  RECHARGE
    CONSTANT   0.10242870E-04
END PERIOD

BEGIN PERIOD 290
  RECHARGE
    CONSTANT   0.97197330E-05
END PERIOD

BEGIN PERIOD 291
  RECHARGE
    CONSTANT   0.92234220E-05
END PERIOD

BEGIN PERIOD 292
  RECHARGE
    CONSTANT   0.87540850E-05
END PERIOD

BEGIN PERIOD 293
  RECHARGE
    CONSTANT   0.83118600E-05
END PERIOD

BEGIN PERIOD 294
  RECHARGE
    CONSTANT   0.78968790E-05
END PERIOD

BEGIN PERIOD 295
  RECHARGE
    CONSTANT   0.75092650E-05
END PERIOD

BEGIN PERIOD 296
  RECHARGE
    CONSTANT   0.71491330E-05
END PERIOD

BEGIN PERIOD 297
  RECHARGE
    CONSTANT   0.68165900E-05
END PERIOD

BEGIN PERIOD 298
  RECHARGE
    CONSTANT   0.65117360E-05
END PERIOD

BEGIN PERIOD 299
  RECHARGE
    CONSTANT   0.62346600E-05
END PERIOD

BEGIN PERIOD 300
  RECHARGE
    CONSTANT   0.59854460E-05
END PERIOD

BEGIN PERIOD 301
  RECHARGE
    CONSTANT   0.57641660E-05
END PERIOD

BEGIN PERIOD 302
  RECHARGE
    CONSTANT   0.55708870E-05
END PERIOD

BEGIN PERIOD 303
  RECHARGE
    CONSTANT   0.54056650E-05
END PERIOD

BEGIN PERIOD 304
  RECHARGE
    CONSTANT   0.52685520E-05
END PERIOD

BEGIN PERIOD 305
  RECHARGE
    CONSTANT   0.51595870E-05
END PERIOD

BEGIN PERIOD 306
  RECHARGE
    CONSTANT   0.50788010E-05
END PERIOD

BEGIN PERIOD 307
  RECHARGE
    CONSTANT   0.50262210E-05
END PERIOD

BEGIN PERIOD 308
  RECHARGE
    CONSTANT   0.50018600E-05
END PERIOD

BEGIN PERIOD 309
  RECHARGE
    CONSTANT   0.50057270E-05
END PERIOD

BEGIN PERIOD 310
  RECHARGE
    CONSTANT   0.50378190E-05
END PERIOD

BEGIN PERIOD 311
  RECHARGE
    CONSTANT   0.50981280E-05
END PERIOD

BEGIN PERIOD 312
  RECHARGE
    CONSTANT   0.51866370E-05
END PERIOD

BEGIN PERIOD 313
  RECHARGE
    CONSTANT   0.53033170E-05
END PERIOD

BEGIN PERIOD 314
  RECHARGE
    CONSTANT   0.54481350E-05
END PERIOD

BEGIN PERIOD 315
  RECHARGE
    CONSTANT   0.56210480E-05
END PERIOD

BEGIN PERIOD 316
  RECHARGE
    CONSTANT   0.58220040E-05
END PERIOD

BEGIN PERIOD 317
  RECHARGE
    CONSTANT   0.60509430E-05
END PERIOD

BEGIN PERIOD 318
  RECHARGE
    CONSTANT   0.63077990E-05
END PERIOD

BEGIN PERIOD 319
  RECHARGE
    CONSTANT   0.65924930E-05
END PERIOD

BEGIN PERIOD 320
  RECHARGE
    CONSTANT   0.69049420E-05
END PERIOD

BEGIN PERIOD 321
  RECHARGE
    CONSTANT   0.72450530E-05
END PERIOD

BEGIN PERIOD 322
  RECHARGE
    CONSTANT   0.76127240E-05
END PERIOD

BEGIN PERIOD 323
  RECHARGE
    CONSTANT   0.80078480E-05
END PERIOD

BEGIN PERIOD 324
  RECHARGE
    CONSTANT   0.84303050E-05
END PERIOD

BEGIN PERIOD 325
  RECHARGE
    CONSTANT   0.88799710E-05
END PERIOD

BEGIN PERIOD 326
  RECHARGE
    CONSTANT   0.93567110E-05
END PERIOD

BEGIN PERIOD 327
  RECHARGE
    CONSTANT   0.98603860E-05
END PERIOD

BEGIN PERIOD 328
  RECHARGE
    CONSTANT   0.10390840E-04
END PERIOD

BEGIN PERIOD 329
  RECHARGE
    CONSTANT   0.10947930E-04
END PERIOD

BEGIN PERIOD 330
  RECHARGE
    CONSTANT   0.11531470E-04
END PERIOD

BEGIN PERIOD 331
  RECHARGE
    CONSTANT   0.12141300E-04
END PERIOD

BEGIN PERIOD 332
  RECHARGE
    CONSTANT   0.12777240E-04
END PERIOD

BEGIN PERIOD 333
  RECHARGE
    CONSTANT   0.13439090E-04
END PERIOD

BEGIN PERIOD 334
  RECHARGE
    CONSTANT   0.14126670E-04
END PERIOD

BEGIN PERIOD 335
  RECHARGE
    CONSTANT   0.14839760E-04
END PERIOD

BEGIN PERIOD 336
  RECHARGE
    CONSTANT   0.15578150E-04
END PERIOD

BEGIN PERIOD 337
  RECHARGE
    CONSTANT   0.16341630E-04
END PERIOD

BEGIN PERIOD 338
  RECHARGE
    CONSTANT   0.17129970E-04
END PERIOD

BEGIN PERIOD 339
  RECHARGE
    CONSTANT   0.17942930E-04
END PERIOD

BEGIN PERIOD 340
  RECHARGE
    CONSTANT   0.18780270E-04
END PERIOD

BEGIN PERIOD 341
  RECHARGE
    CONSTANT   0.19641750E-04
END PERIOD

BEGIN PERIOD 342
  RECHARGE
    CONSTANT   0.20527100E-04
END PERIOD

BEGIN PERIOD 343
  RECHARGE
    CONSTANT   0.21436070E-04
END PERIOD

BEGIN PERIOD 344
  RECHARGE
    CONSTANT   0.22368380E-04
END PERIOD

BEGIN PERIOD 345
  RECHARGE
    CONSTANT   0.23323760E-04
END PERIOD

BEGIN PERIOD 346
  RECHARGE
    CONSTANT   0.24301920E-04
END PERIOD

BEGIN PERIOD 347
  RECHARGE
    CONSTANT   0.25302570E-04
END PERIOD

BEGIN PERIOD 348
  RECHARGE
    CONSTANT   0.26325420E-04
END PERIOD

BEGIN PERIOD 349
  RECHARGE
    CONSTANT   0.27370170E-04
END PERIOD

BEGIN PERIOD 350
  RECHARGE
    CONSTANT   0.28436490E-04
END PERIOD

BEGIN PERIOD 351
  RECHARGE
    CONSTANT   0.29524070E-04
END PERIOD

BEGIN PERIOD 352
  RECHARGE
    CONSTANT   0.30632600E-04
END PERIOD

BEGIN PERIOD 353
  RECHARGE
    CONSTANT   0.31761740E-04
END PERIOD

BEGIN PERIOD 354
  RECHARGE
    CONSTANT   0.32911150E-04
END PERIOD

BEGIN PERIOD 355
  RECHARGE
    CONSTANT   0.34080500E-04
END PERIOD

BEGIN PERIOD 356
  RECHARGE
    CONSTANT   0.35269440E-04
END PERIOD

BEGIN PERIOD 357
  RECHARGE
    CONSTANT   0.36477600E-04
END PERIOD

BEGIN PERIOD 358
  RECHARGE
    CONSTANT   0.37704650E-04
END PERIOD

BEGIN PERIOD 359
  RECHARGE
    CONSTANT   0.38950200E-04
END PERIOD

BEGIN PERIOD 360
  RECHARGE
    CONSTANT   0.40213900E-04
END PERIOD

BEGIN PERIOD 361
  RECHARGE
    CONSTANT   0.41495350E-04
END PERIOD

BEGIN PERIOD 362
  RECHARGE
    CONSTANT   0.42794200E-04
END PERIOD

BEGIN PERIOD 363
  RECHARGE
    CONSTANT   0.44110040E-04
END PERIOD

BEGIN PERIOD 364
  RECHARGE
    CONSTANT   0.45442480E-04
END PERIOD

BEGIN PERIOD 365
  RECHARGE
    CONSTANT   0.46791140E-04
END PERIOD

BEGIN PERIOD 366
  RECHARGE
    CONSTANT   0.48155610E-04
END PERIOD

BEGIN PERIOD 367
  RECHARGE
    CONSTANT   0.49535480E-04
END PERIOD

BEGIN PERIOD 368
  RECHARGE
    CONSTANT   0.50930350E-04
END PERIOD

BEGIN PERIOD 369
  RECHARGE
    CONSTANT   0.52339800E-04
END PERIOD

BEGIN PERIOD 370
  RECHARGE
    CONSTANT   0.53763410E-04
END PERIOD

BEGIN PERIOD 371
  RECHARGE
    CONSTANT   0.55200760E-04
END PERIOD

BEGIN PERIOD 372
  RECHARGE
    CONSTANT   0.56651420E-04
END PERIOD

BEGIN PERIOD 373
  RECHARGE
    CONSTANT   0.58114960E-04
END PERIOD

BEGIN PERIOD 374
  RECHARGE
    CONSTANT   0.59590940E-04
END PERIOD

BEGIN PERIOD 375
  RECHARGE
    CONSTANT   0.61078940E-04
END PERIOD

BEGIN PERIOD 376
  RECHARGE
    CONSTANT   0.62578490E-04
END PERIOD

BEGIN PERIOD 377
  RECHARGE
    CONSTANT   0.64089170E-04
END PERIOD

BEGIN PERIOD 378
  RECHARGE
    CONSTANT   0.65610510E-04
END PERIOD

BEGIN PERIOD 379
  RECHARGE
    CONSTANT   0.67142080E-04
END PERIOD

BEGIN PERIOD 380
  RECHARGE
    CONSTANT   0.68683410E-04
END PERIOD

BEGIN PERIOD 381
  RECHARGE
    CONSTANT   0.70234040E-04
END PERIOD

BEGIN PERIOD 382
  RECHARGE
    CONSTANT   0.71793520E-04
END PERIOD

BEGIN PERIOD 383
  RECHARGE
    CONSTANT   0.73361390E-04
END PERIOD

BEGIN PERIOD 384
  RECHARGE
    CONSTANT   0.74937150E-04
END PERIOD

BEGIN PERIOD 385
  RECHARGE
    CONSTANT   0.76520370E-04
END PERIOD

BEGIN PERIOD 386
  RECHARGE
    CONSTANT   0.78110580E-04
END PERIOD

BEGIN PERIOD 387
  RECHARGE
    CONSTANT   0.79707270E-04
END PERIOD

BEGIN PERIOD 388
  RECHARGE
    CONSTANT   0.81310010E-04
END PERIOD

BEGIN PERIOD 389
  RECHARGE
    CONSTANT   0.82918300E-04
END PERIOD

BEGIN PERIOD 390
  RECHARGE
    CONSTANT   0.84531650E-04
END PERIOD

BEGIN PERIOD 391
  RECHARGE
    CONSTANT   0.86149620E-04
END PERIOD

BEGIN PERIOD 392
  RECHARGE
    CONSTANT   0.87771690E-04
END PERIOD

BEGIN PERIOD 393
  RECHARGE
    CONSTANT   0.89397390E-04
END PERIOD

BEGIN PERIOD 394
  RECHARGE
    CONSTANT   0.91026250E-04
END PERIOD

BEGIN PERIOD 395
  RECHARGE
    CONSTANT   0.92657770E-04
END PERIOD

BEGIN PERIOD 396
  RECHARGE
    CONSTANT   0.94291480E-04
END PERIOD

BEGIN PERIOD 397
  RECHARGE
    CONSTANT   0.95926880E-04
END PERIOD

BEGIN PERIOD 398
  RECHARGE
    CONSTANT   0.97563490E-04
END PERIOD

BEGIN PERIOD 399
  RECHARGE
    CONSTANT   0.99200820E-04
END PERIOD

BEGIN PERIOD 400
  RECHARGE
    CONSTANT   0.10083840E-03
END PERIOD

BEGIN PERIOD 401
  RECHARGE
    CONSTANT   0.10247570E-03
END PERIOD

BEGIN PERIOD 402
  RECHARGE
    CONSTANT   0.10411230E-03
END PERIOD

BEGIN PERIOD 403
  RECHARGE
    CONSTANT   0.10574770E-03
END PERIOD

BEGIN PERIOD 404
  RECHARGE
    CONSTANT   0.10738130E-03
END PERIOD

BEGIN PERIOD 405
  RECHARGE
    CONSTANT   0.10901280E-03
END PERIOD

BEGIN PERIOD 406
  RECHARGE
    CONSTANT   0.11064160E-03
END PERIOD

BEGIN PERIOD 407
  RECHARGE
    CONSTANT   0.11226720E-03
END PERIOD

BEGIN PERIOD 408
  RECHARGE
    CONSTANT   0.11388920E-03
END PERIOD

BEGIN PERIOD 409
  RECHARGE
    CONSTANT   0.11550700E-03
END PERIOD

BEGIN PERIOD 410
  RECHARGE
    CONSTANT   0.11712030E-03
END PERIOD

BEGIN PERIOD 411
  RECHARGE
    CONSTANT   0.11872840E-03
END PERIOD

BEGIN PERIOD 412
  RECHARGE
    CONSTANT   0.12033100E-03
END PERIOD

BEGIN PERIOD 413
  RECHARGE
    CONSTANT   0.12192760E-03
END PERIOD

BEGIN PERIOD 414
  RECHARGE
    CONSTANT   0.12351760E-03
END PERIOD

BEGIN PERIOD 415
  RECHARGE
    CONSTANT   0.12510070E-03
END PERIOD

BEGIN PERIOD 416
  RECHARGE
    CONSTANT   0.12667630E-03
END PERIOD

BEGIN PERIOD 417
  RECHARGE
    CONSTANT   0.12824390E-03
END PERIOD

BEGIN PERIOD 418
  RECHARGE
    CONSTANT   0.12980320E-03
END PERIOD

BEGIN PERIOD 419
  RECHARGE
    CONSTANT   0.13135360E-03
END PERIOD

BEGIN PERIOD 420
  RECHARGE
    CONSTANT   0.13289470E-03
END PERIOD

BEGIN PERIOD 421
  RECHARGE
    CONSTANT   0.13442600E-03
END PERIOD

BEGIN PERIOD 422
  RECHARGE
    CONSTANT   0.13594710E-03
END PERIOD

BEGIN PERIOD 423
  RECHARGE
    CONSTANT   0.13745760E-03
END PERIOD

BEGIN PERIOD 424
  RECHARGE
    CONSTANT   0.13895680E-03
END PERIOD

BEGIN PERIOD 425
  RECHARGE
    CONSTANT   0.14044460E-03
END PERIOD

BEGIN PERIOD 426
  RECHARGE
    CONSTANT   0.14192020E-03
END PERIOD

BEGIN PERIOD 427
  RECHARGE
    CONSTANT   0.14338350E-03
END PERIOD

BEGIN PERIOD 428
  RECHARGE
    CONSTANT   0.14483380E-03
END PERIOD

BEGIN PERIOD 429
  RECHARGE
    CONSTANT   0.14627080E-03
END PERIOD

BEGIN PERIOD 430
  RECHARGE