# RCH6 input file, prepared by MF5to6 on 6/17/2020 at 19:23:33.

BEGIN Options
  READASARRAYS
END Options

BEGIN PERIOD 1
  RECHARGE
    CONSTANT   0.10000000E-03
END PERIOD
