# RCH6 input file, prepared by MF5to6 on 6/30/2020 at 16:30:18.

BEGIN Options
  READASARRAYS
END Options

BEGIN PERIOD 1
  RECHARGE
    CONSTANT   0.10000000E-03
END PERIOD

BEGIN PERIOD 2
  RECHARGE
    CONSTANT   0.50246350E-04
END PERIOD

BEGIN PERIOD 3
  RECHARGE
    CONSTANT   0.51648540E-04
END PERIOD

BEGIN PERIOD 4
  RECHARGE
    CONSTANT   0.53076680E-04
END PERIOD

BEGIN PERIOD 5
  RECHARGE
    CONSTANT   0.54505120E-04
END PERIOD

BEGIN PERIOD 6
  RECHARGE
    CONSTANT   0.55935130E-04
END PERIOD

BEGIN PERIOD 7
  RECHARGE
    CONSTANT   0.57400540E-04
END PERIOD

BEGIN PERIOD 8
  RECHARGE
    CONSTANT   0.58885100E-04
END PERIOD

BEGIN PERIOD 9
  RECHARGE
    CONSTANT   0.60377130E-04
END PERIOD

BEGIN PERIOD 10
  RECHARGE
    CONSTANT   0.61836620E-04
END PERIOD

BEGIN PERIOD 11
  RECHARGE
    CONSTANT   0.63345900E-04
END PERIOD

BEGIN PERIOD 12
  RECHARGE
    CONSTANT   0.64877660E-04
END PERIOD

BEGIN PERIOD 13
  RECHARGE
    CONSTANT   0.66393030E-04
END PERIOD

BEGIN PERIOD 14
  RECHARGE
    CONSTANT   0.67932010E-04
END PERIOD

BEGIN PERIOD 15
  RECHARGE
    CONSTANT   0.69489370E-04
END PERIOD

BEGIN PERIOD 16
  RECHARGE
    CONSTANT   0.71040660E-04
END PERIOD

BEGIN PERIOD 17
  RECHARGE
    CONSTANT   0.72610120E-04
END PERIOD

BEGIN PERIOD 18
  RECHARGE
    CONSTANT   0.74206120E-04
END PERIOD

BEGIN PERIOD 19
  RECHARGE
    CONSTANT   0.75731070E-04
END PERIOD

BEGIN PERIOD 20
  RECHARGE
    CONSTANT   0.77363580E-04
END PERIOD

BEGIN PERIOD 21
  RECHARGE
    CONSTANT   0.78951230E-04
END PERIOD

BEGIN PERIOD 22
  RECHARGE
    CONSTANT   0.80574310E-04
END PERIOD

BEGIN PERIOD 23
  RECHARGE
    CONSTANT   0.82171540E-04
END PERIOD

BEGIN PERIOD 24
  RECHARGE
    CONSTANT   0.83758580E-04
END PERIOD

BEGIN PERIOD 25
  RECHARGE
    CONSTANT   0.85413970E-04
END PERIOD

BEGIN PERIOD 26
  RECHARGE
    CONSTANT   0.87038550E-04
END PERIOD

BEGIN PERIOD 27
  RECHARGE
    CONSTANT   0.88639060E-04
END PERIOD

BEGIN PERIOD 28
  RECHARGE
    CONSTANT   0.90291530E-04
END PERIOD

BEGIN PERIOD 29
  RECHARGE
    CONSTANT   0.91888070E-04
END PERIOD

BEGIN PERIOD 30
  RECHARGE
    CONSTANT   0.93546780E-04
END PERIOD

BEGIN PERIOD 31
  RECHARGE
    CONSTANT   0.95132560E-04
END PERIOD

BEGIN PERIOD 32
  RECHARGE
    CONSTANT   0.96822250E-04
END PERIOD

BEGIN PERIOD 33
  RECHARGE
    CONSTANT   0.98391520E-04
END PERIOD

BEGIN PERIOD 34
  RECHARGE
    CONSTANT   0.10006890E-03
END PERIOD

BEGIN PERIOD 35
  RECHARGE
    CONSTANT   0.10173080E-03
END PERIOD

BEGIN PERIOD 36
  RECHARGE
    CONSTANT   0.10336700E-03
END PERIOD

BEGIN PERIOD 37
  RECHARGE
    CONSTANT   0.10498120E-03
END PERIOD

BEGIN PERIOD 38
  RECHARGE
    CONSTANT   0.10665950E-03
END PERIOD

BEGIN PERIOD 39
  RECHARGE
    CONSTANT   0.10820380E-03
END PERIOD

BEGIN PERIOD 40
  RECHARGE
    CONSTANT   0.10988210E-03
END PERIOD

BEGIN PERIOD 41
  RECHARGE
    CONSTANT   0.11154230E-03
END PERIOD

BEGIN PERIOD 42
  RECHARGE
    CONSTANT   0.11312970E-03
END PERIOD

BEGIN PERIOD 43
  RECHARGE
    CONSTANT   0.11471760E-03
END PERIOD

BEGIN PERIOD 44
  RECHARGE
    CONSTANT   0.11639430E-03
END PERIOD

BEGIN PERIOD 45
  RECHARGE
    CONSTANT   0.11797170E-03
END PERIOD

BEGIN PERIOD 46
  RECHARGE
    CONSTANT   0.11960400E-03
END PERIOD

BEGIN PERIOD 47
  RECHARGE
    CONSTANT   0.12121900E-03
END PERIOD

BEGIN PERIOD 48
  RECHARGE
    CONSTANT   0.12276840E-03
END PERIOD

BEGIN PERIOD 49
  RECHARGE
    CONSTANT   0.12434470E-03
END PERIOD

BEGIN PERIOD 50
  RECHARGE
    CONSTANT   0.12592030E-03
END PERIOD

BEGIN PERIOD 51
  RECHARGE
    CONSTANT   0.12751450E-03
END PERIOD

BEGIN PERIOD 52
  RECHARGE
    CONSTANT   0.12911700E-03
END PERIOD

BEGIN PERIOD 53
  RECHARGE
    CONSTANT   0.13061260E-03
END PERIOD

BEGIN PERIOD 54
  RECHARGE
    CONSTANT   0.13215290E-03
END PERIOD

BEGIN PERIOD 55
  RECHARGE
    CONSTANT   0.13371950E-03
END PERIOD

BEGIN PERIOD 56
  RECHARGE
    CONSTANT   0.13520990E-03
END PERIOD

BEGIN PERIOD 57
  RECHARGE
    CONSTANT   0.13681530E-03
END PERIOD

BEGIN PERIOD 58
  RECHARGE
    CONSTANT   0.13828960E-03
END PERIOD

BEGIN PERIOD 59
  RECHARGE
    CONSTANT   0.13979170E-03
END PERIOD

BEGIN PERIOD 60
  RECHARGE
    CONSTANT   0.14124440E-03
END PERIOD

BEGIN PERIOD 61
  RECHARGE
    CONSTANT   0.14268630E-03
END PERIOD

BEGIN PERIOD 62
  RECHARGE
    CONSTANT   0.14418340E-03
END PERIOD

BEGIN PERIOD 63
  RECHARGE
    CONSTANT   0.14563440E-03
END PERIOD

BEGIN PERIOD 64
  RECHARGE
    CONSTANT   0.14706610E-03
END PERIOD

BEGIN PERIOD 65
  RECHARGE
    CONSTANT   0.14847010E-03
END PERIOD

BEGIN PERIOD 66
  RECHARGE
    CONSTANT   0.14989230E-03
END PERIOD

BEGIN PERIOD 67
  RECHARGE
    CONSTANT   0.15122750E-03
END PERIOD

BEGIN PERIOD 68
  RECHARGE
    CONSTANT   0.15268990E-03
END PERIOD

BEGIN PERIOD 69
  RECHARGE
    CONSTANT   0.15406340E-03
END PERIOD

BEGIN PERIOD 70
  RECHARGE
    CONSTANT   0.15533700E-03
END PERIOD

BEGIN PERIOD 71
  RECHARGE
    CONSTANT   0.15660080E-03
END PERIOD

BEGIN PERIOD 72
  RECHARGE
    CONSTANT   0.15792330E-03
END PERIOD

BEGIN PERIOD 73
  RECHARGE
    CONSTANT   0.15920270E-03
END PERIOD

BEGIN PERIOD 74
  RECHARGE
    CONSTANT   0.16050550E-03
END PERIOD

BEGIN PERIOD 75
  RECHARGE
    CONSTANT   0.16173950E-03
END PERIOD

BEGIN PERIOD 76
  RECHARGE
    CONSTANT   0.16310040E-03
END PERIOD

BEGIN PERIOD 77
  RECHARGE
    CONSTANT   0.16421060E-03
END PERIOD

BEGIN PERIOD 78
  RECHARGE
    CONSTANT   0.16551870E-03
END PERIOD

BEGIN PERIOD 79
  RECHARGE
    CONSTANT   0.16659390E-03
END PERIOD

BEGIN PERIOD 80
  RECHARGE
    CONSTANT   0.16771960E-03
END PERIOD

BEGIN PERIOD 81
  RECHARGE
    CONSTANT   0.16883390E-03
END PERIOD

BEGIN PERIOD 82
  RECHARGE
    CONSTANT   0.17009720E-03
END PERIOD

BEGIN PERIOD 83
  RECHARGE
    CONSTANT   0.17111620E-03
END PERIOD

BEGIN PERIOD 84
  RECHARGE
    CONSTANT   0.17215420E-03
END PERIOD

BEGIN PERIOD 85
  RECHARGE
    CONSTANT   0.17318240E-03
END PERIOD

BEGIN PERIOD 86
  RECHARGE
    CONSTANT   0.17433760E-03
END PERIOD

BEGIN PERIOD 87
  RECHARGE
    CONSTANT   0.17528500E-03
END PERIOD

BEGIN PERIOD 88
  RECHARGE
    CONSTANT   0.17635300E-03
END PERIOD

BEGIN PERIOD 89
  RECHARGE
    CONSTANT   0.17725170E-03
END PERIOD

BEGIN PERIOD 90
  RECHARGE
    CONSTANT   0.17813470E-03
END PERIOD

BEGIN PERIOD 91
  RECHARGE
    CONSTANT   0.17910270E-03
END PERIOD

BEGIN PERIOD 92
  RECHARGE
    CONSTANT   0.18009120E-03
END PERIOD

BEGIN PERIOD 93
  RECHARGE
    CONSTANT   0.18009520E-03
END PERIOD

BEGIN PERIOD 94
  RECHARGE
    CONSTANT   0.18097050E-03
END PERIOD

BEGIN PERIOD 95
  RECHARGE
    CONSTANT   0.18174100E-03
END PERIOD

BEGIN PERIOD 96
  RECHARGE
    CONSTANT   0.18259260E-03
END PERIOD

BEGIN PERIOD 97
  RECHARGE
    CONSTANT   0.18340040E-03
END PERIOD

BEGIN PERIOD 98
  RECHARGE
    CONSTANT   0.18408670E-03
END PERIOD

BEGIN PERIOD 99
  RECHARGE
    CONSTANT   0.18487960E-03
END PERIOD

BEGIN PERIOD 100
  RECHARGE
    CONSTANT   0.18562650E-03
END PERIOD

BEGIN PERIOD 101
  RECHARGE
    CONSTANT   0.18626130E-03
END PERIOD

BEGIN PERIOD 102
  RECHARGE
    CONSTANT   0.18705490E-03
END PERIOD

BEGIN PERIOD 103
  RECHARGE
    CONSTANT   0.18768530E-03
END PERIOD

BEGIN PERIOD 104
  RECHARGE
    CONSTANT   0.18819010E-03
END PERIOD

BEGIN PERIOD 105
  RECHARGE
    CONSTANT   0.18882360E-03
END PERIOD

BEGIN PERIOD 106
  RECHARGE
    CONSTANT   0.18949530E-03
END PERIOD

BEGIN PERIOD 107
  RECHARGE
    CONSTANT   0.18991680E-03
END PERIOD

BEGIN PERIOD 108
  RECHARGE
    CONSTANT   0.19055380E-03
END PERIOD

BEGIN PERIOD 109
  RECHARGE
    CONSTANT   0.19101130E-03
END PERIOD

BEGIN PERIOD 110
  RECHARGE
    CONSTANT   0.19141780E-03
END PERIOD

BEGIN PERIOD 111
  RECHARGE
    CONSTANT   0.19187550E-03
END PERIOD

BEGIN PERIOD 112
  RECHARGE
    CONSTANT   0.19224390E-03
END PERIOD

BEGIN PERIOD 113
  RECHARGE
    CONSTANT   0.19261790E-03
END PERIOD

BEGIN PERIOD 114
  RECHARGE
    CONSTANT   0.19301520E-03
END PERIOD

BEGIN PERIOD 115
  RECHARGE
    CONSTANT   0.19328880E-03
END PERIOD

BEGIN PERIOD 116
  RECHARGE
    CONSTANT   0.19356540E-03
END PERIOD

BEGIN PERIOD 117
  RECHARGE
    CONSTANT   0.19385870E-03
END PERIOD

BEGIN PERIOD 118
  RECHARGE
    CONSTANT   0.19418330E-03
END PERIOD

BEGIN PERIOD 119
  RECHARGE
    CONSTANT   0.19446330E-03
END PERIOD

BEGIN PERIOD 120
  RECHARGE
    CONSTANT   0.19453730E-03
END PERIOD

BEGIN PERIOD 121
  RECHARGE
    CONSTANT   0.19466660E-03
END PERIOD

BEGIN PERIOD 122
  RECHARGE
    CONSTANT   0.19483350E-03
END PERIOD

BEGIN PERIOD 123
  RECHARGE
    CONSTANT   0.19496340E-03
END PERIOD

BEGIN PERIOD 124
  RECHARGE
    CONSTANT   0.19511290E-03
END PERIOD

BEGIN PERIOD 125
  RECHARGE
    CONSTANT   0.19514470E-03
END PERIOD

BEGIN PERIOD 126
  RECHARGE
    CONSTANT   0.19507090E-03
END PERIOD

BEGIN PERIOD 127
  RECHARGE
    CONSTANT   0.19505470E-03
END PERIOD

BEGIN PERIOD 128
  RECHARGE
    CONSTANT   0.19496840E-03
END PERIOD

BEGIN PERIOD 129
  RECHARGE
    CONSTANT   0.19505040E-03
END PERIOD

BEGIN PERIOD 130
  RECHARGE
    CONSTANT   0.19491650E-03
END PERIOD

BEGIN PERIOD 131
  RECHARGE
    CONSTANT   0.19474260E-03
END PERIOD

BEGIN PERIOD 132
  RECHARGE
    CONSTANT   0.19455740E-03
END PERIOD

BEGIN PERIOD 133
  RECHARGE
    CONSTANT   0.19449640E-03
END PERIOD

BEGIN PERIOD 134
  RECHARGE
    CONSTANT   0.19423140E-03
END PERIOD

BEGIN PERIOD 135
  RECHARGE
    CONSTANT   0.19399900E-03
END PERIOD

BEGIN PERIOD 136
  RECHARGE
    CONSTANT   0.19369620E-03
END PERIOD

BEGIN PERIOD 137
  RECHARGE
    CONSTANT   0.19350140E-03
END PERIOD

BEGIN PERIOD 138
  RECHARGE
    CONSTANT   0.19307450E-03
END PERIOD

BEGIN PERIOD 139
  RECHARGE
    CONSTANT   0.19280810E-03
END PERIOD

BEGIN PERIOD 140
  RECHARGE
    CONSTANT   0.19243400E-03
END PERIOD

BEGIN PERIOD 141
  RECHARGE
    CONSTANT   0.19199440E-03
END PERIOD

BEGIN PERIOD 142
  RECHARGE
    CONSTANT   0.19164440E-03
END PERIOD

BEGIN PERIOD 143
  RECHARGE
    CONSTANT   0.19116760E-03
END PERIOD

BEGIN PERIOD 144
  RECHARGE
    CONSTANT   0.19065770E-03
END PERIOD

BEGIN PERIOD 145
  RECHARGE
    CONSTANT   0.19008370E-03
END PERIOD

BEGIN PERIOD 146
  RECHARGE
    CONSTANT   0.18948920E-03
END PERIOD

BEGIN PERIOD 147
  RECHARGE
    CONSTANT   0.18898540E-03
END PERIOD

BEGIN PERIOD 148
  RECHARGE
    CONSTANT   0.18833960E-03
END PERIOD

BEGIN PERIOD 149
  RECHARGE
    CONSTANT   0.18784370E-03
END PERIOD

BEGIN PERIOD 150
  RECHARGE
    CONSTANT   0.18712690E-03
END PERIOD

BEGIN PERIOD 151
  RECHARGE
    CONSTANT   0.18649030E-03
END PERIOD

BEGIN PERIOD 152
  RECHARGE
    CONSTANT   0.18574510E-03
END PERIOD

BEGIN PERIOD 153
  RECHARGE
    CONSTANT   0.18506060E-03
END PERIOD

BEGIN PERIOD 154
  RECHARGE
    CONSTANT   0.18428440E-03
END PERIOD

BEGIN PERIOD 155
  RECHARGE
    CONSTANT   0.18360410E-03
END PERIOD

BEGIN PERIOD 156
  RECHARGE
    CONSTANT   0.18283800E-03
END PERIOD

BEGIN PERIOD 157
  RECHARGE
    CONSTANT   0.18200470E-03
END PERIOD

BEGIN PERIOD 158
  RECHARGE
    CONSTANT   0.18106980E-03
END PERIOD

BEGIN PERIOD 159
  RECHARGE
    CONSTANT   0.18017030E-03
END PERIOD

BEGIN PERIOD 160
  RECHARGE
    CONSTANT   0.17933770E-03
END PERIOD

BEGIN PERIOD 161
  RECHARGE
    CONSTANT   0.17839930E-03
END PERIOD

BEGIN PERIOD 162
  RECHARGE
    CONSTANT   0.17753910E-03
END PERIOD

BEGIN PERIOD 163
  RECHARGE
    CONSTANT   0.17644810E-03
END PERIOD

BEGIN PERIOD 164
  RECHARGE
    CONSTANT   0.17555120E-03
END PERIOD

BEGIN PERIOD 165
  RECHARGE
    CONSTANT   0.17452820E-03
END PERIOD

BEGIN PERIOD 166
  RECHARGE
    CONSTANT   0.17348920E-03
END PERIOD

BEGIN PERIOD 167
  RECHARGE
    CONSTANT   0.17241440E-03
END PERIOD

BEGIN PERIOD 168
  RECHARGE
    CONSTANT   0.17144490E-03
END PERIOD

BEGIN PERIOD 169
  RECHARGE
    CONSTANT   0.17035610E-03
END PERIOD

BEGIN PERIOD 170
  RECHARGE
    CONSTANT   0.16919880E-03
END PERIOD

BEGIN PERIOD 171
  RECHARGE
    CONSTANT   0.16809290E-03
END PERIOD

BEGIN PERIOD 172
  RECHARGE
    CONSTANT   0.16689230E-03
END PERIOD

BEGIN PERIOD 173
  RECHARGE
    CONSTANT   0.16572590E-03
END PERIOD

BEGIN PERIOD 174
  RECHARGE
    CONSTANT   0.16457590E-03
END PERIOD

BEGIN PERIOD 175
  RECHARGE
    CONSTANT   0.16324870E-03
END PERIOD

BEGIN PERIOD 176
  RECHARGE
    CONSTANT   0.16206500E-03
END PERIOD

BEGIN PERIOD 177
  RECHARGE
    CONSTANT   0.16074880E-03
END PERIOD

BEGIN PERIOD 178
  RECHARGE
    CONSTANT   0.15949060E-03
END PERIOD

BEGIN PERIOD 179
  RECHARGE
    CONSTANT   0.15825230E-03
END PERIOD

BEGIN PERIOD 180
  RECHARGE
    CONSTANT   0.15697490E-03
END PERIOD

BEGIN PERIOD 181
  RECHARGE
    CONSTANT   0.15569630E-03
END PERIOD

BEGIN PERIOD 182
  RECHARGE
    CONSTANT   0.15429940E-03
END PERIOD

BEGIN PERIOD 183
  RECHARGE
    CONSTANT   0.15294130E-03
END PERIOD

BEGIN PERIOD 184
  RECHARGE
    CONSTANT   0.15159700E-03
END PERIOD

BEGIN PERIOD 185
  RECHARGE
    CONSTANT   0.15025300E-03
END PERIOD

BEGIN PERIOD 186
  RECHARGE
    CONSTANT   0.14877110E-03
END PERIOD

BEGIN PERIOD 187
  RECHARGE
    CONSTANT   0.14731820E-03
END PERIOD

BEGIN PERIOD 188
  RECHARGE
    CONSTANT   0.14594700E-03
END PERIOD

BEGIN PERIOD 189
  RECHARGE
    CONSTANT   0.14451130E-03
END PERIOD

BEGIN PERIOD 190
  RECHARGE
    CONSTANT   0.14309050E-03
END PERIOD

BEGIN PERIOD 191
  RECHARGE
    CONSTANT   0.14160400E-03
END PERIOD

BEGIN PERIOD 192
  RECHARGE
    CONSTANT   0.14010670E-03
END PERIOD

BEGIN PERIOD 193
  RECHARGE
    CONSTANT   0.13860500E-03
END PERIOD

BEGIN PERIOD 194
  RECHARGE
    CONSTANT   0.13712980E-03
END PERIOD

BEGIN PERIOD 195
  RECHARGE
    CONSTANT   0.13556590E-03
END PERIOD

BEGIN PERIOD 196
  RECHARGE
    CONSTANT   0.13407980E-03
END PERIOD

BEGIN PERIOD 197
  RECHARGE
    CONSTANT   0.13251500E-03
END PERIOD

BEGIN PERIOD 198
  RECHARGE
    CONSTANT   0.13102050E-03
END PERIOD

BEGIN PERIOD 199
  RECHARGE
    CONSTANT   0.12947200E-03
END PERIOD

BEGIN PERIOD 200
  RECHARGE
    CONSTANT   0.12794060E-03
END PERIOD

BEGIN PERIOD 201
  RECHARGE
    CONSTANT   0.12631790E-03
END PERIOD

BEGIN PERIOD 202
  RECHARGE
    CONSTANT   0.12467020E-03
END PERIOD

BEGIN PERIOD 203
  RECHARGE
    CONSTANT   0.12317960E-03
END PERIOD

BEGIN PERIOD 204
  RECHARGE
    CONSTANT   0.12153010E-03
END PERIOD

BEGIN PERIOD 205
  RECHARGE
    CONSTANT   0.11996240E-03
END PERIOD

BEGIN PERIOD 206
  RECHARGE
    CONSTANT   0.11833380E-03
END PERIOD

BEGIN PERIOD 207
  RECHARGE
    CONSTANT   0.11673760E-03
END PERIOD

BEGIN PERIOD 208
  RECHARGE
    CONSTANT   0.11516030E-03
END PERIOD

BEGIN PERIOD 209
  RECHARGE
    CONSTANT   0.11345180E-03
END PERIOD

BEGIN PERIOD 210
  RECHARGE
    CONSTANT   0.11183540E-03
END PERIOD

BEGIN PERIOD 211
  RECHARGE
    CONSTANT   0.11025460E-03
END PERIOD

BEGIN PERIOD 212
  RECHARGE
    CONSTANT   0.10864020E-03
END PERIOD

BEGIN PERIOD 213
  RECHARGE
    CONSTANT   0.10702460E-03
END PERIOD

BEGIN PERIOD 214
  RECHARGE
    CONSTANT   0.10540090E-03
END PERIOD

BEGIN PERIOD 215
  RECHARGE
    CONSTANT   0.10376590E-03
END PERIOD

BEGIN PERIOD 216
  RECHARGE
    CONSTANT   0.10211640E-03
END PERIOD

BEGIN PERIOD 217
  RECHARGE
    CONSTANT   0.10046470E-03
END PERIOD

BEGIN PERIOD 218
  RECHARGE
    CONSTANT   0.98836070E-04
END PERIOD

BEGIN PERIOD 219
  RECHARGE
    CONSTANT   0.97140110E-04
END PERIOD

BEGIN PERIOD 220
  RECHARGE
    CONSTANT   0.95563450E-04
END PERIOD

BEGIN PERIOD 221
  RECHARGE
    CONSTANT   0.93845950E-04
END PERIOD

BEGIN PERIOD 222
  RECHARGE
    CONSTANT   0.92214910E-04
END PERIOD

BEGIN PERIOD 223
  RECHARGE
    CONSTANT   0.90637880E-04
END PERIOD

BEGIN PERIOD 224
  RECHARGE
    CONSTANT   0.89022440E-04
END PERIOD

BEGIN PERIOD 225
  RECHARGE
    CONSTANT   0.87392330E-04
END PERIOD

BEGIN PERIOD 226
  RECHARGE
    CONSTANT   0.85706150E-04
END PERIOD

BEGIN PERIOD 227
  RECHARGE
    CONSTANT   0.84151730E-04
END PERIOD

BEGIN PERIOD 228
  RECHARGE
    CONSTANT   0.82556090E-04
END PERIOD

BEGIN PERIOD 229
  RECHARGE
    CONSTANT   0.80894840E-04
END PERIOD

BEGIN PERIOD 230
  RECHARGE
    CONSTANT   0.79337410E-04
END PERIOD

BEGIN PERIOD 231
  RECHARGE
    CONSTANT   0.77705970E-04
END PERIOD

BEGIN PERIOD 232
  RECHARGE
    CONSTANT   0.76087100E-04
END PERIOD

BEGIN PERIOD 233
  RECHARGE
    CONSTANT   0.74579130E-04
END PERIOD

BEGIN PERIOD 234
  RECHARGE
    CONSTANT   0.72961870E-04
END PERIOD

BEGIN PERIOD 235
  RECHARGE
    CONSTANT   0.71420040E-04
END PERIOD

BEGIN PERIOD 236
  RECHARGE
    CONSTANT   0.69835970E-04
END PERIOD

BEGIN PERIOD 237
  RECHARGE
    CONSTANT   0.68273310E-04
END PERIOD

BEGIN PERIOD 238
  RECHARGE
    CONSTANT   0.66775710E-04
END PERIOD

BEGIN PERIOD 239
  RECHARGE
    CONSTANT   0.65241940E-04
END PERIOD

BEGIN PERIOD 240
  RECHARGE
    CONSTANT   0.63680730E-04
END PERIOD

BEGIN PERIOD 241
  RECHARGE
    CONSTANT   0.62172160E-04
END PERIOD

BEGIN PERIOD 242
  RECHARGE
    CONSTANT   0.60679830E-04
END PERIOD

BEGIN PERIOD 243
  RECHARGE
    CONSTANT   0.59224040E-04
END PERIOD

BEGIN PERIOD 244
  RECHARGE
    CONSTANT   0.57716040E-04
END PERIOD

BEGIN PERIOD 245
  RECHARGE
    CONSTANT   0.56273960E-04
END PERIOD

BEGIN PERIOD 246
  RECHARGE
    CONSTANT   0.54825590E-04
END PERIOD

BEGIN PERIOD 247
  RECHARGE
    CONSTANT   0.53422420E-04
END PERIOD

BEGIN PERIOD 248
  RECHARGE
    CONSTANT   0.51952970E-04
END PERIOD

BEGIN PERIOD 249
  RECHARGE
    CONSTANT   0.50582500E-04
END PERIOD

BEGIN PERIOD 250
  RECHARGE
    CONSTANT   0.49197180E-04
END PERIOD

BEGIN PERIOD 251
  RECHARGE
    CONSTANT   0.47824640E-04
END PERIOD

BEGIN PERIOD 252
  RECHARGE
    CONSTANT   0.46434370E-04
END PERIOD

BEGIN PERIOD 253
  RECHARGE
    CONSTANT   0.45076750E-04
END PERIOD

BEGIN PERIOD 254
  RECHARGE
    CONSTANT   0.43768940E-04
END PERIOD

BEGIN PERIOD 255
  RECHARGE
    CONSTANT   0.42472410E-04
END PERIOD

BEGIN PERIOD 256
  RECHARGE
    CONSTANT   0.41166400E-04
END PERIOD

BEGIN PERIOD 257
  RECHARGE
    CONSTANT   0.39868530E-04
END PERIOD

BEGIN PERIOD 258
  RECHARGE
    CONSTANT   0.38639850E-04
END PERIOD

BEGIN PERIOD 259
  RECHARGE
    CONSTANT   0.37387320E-04
END PERIOD

BEGIN PERIOD 260
  RECHARGE
    CONSTANT   0.36173260E-04
END PERIOD

BEGIN PERIOD 261
  RECHARGE
    CONSTANT   0.34962920E-04
END PERIOD

BEGIN PERIOD 262
  RECHARGE
    CONSTANT   0.33782680E-04
END PERIOD

BEGIN PERIOD 263
  RECHARGE
    CONSTANT   0.32598490E-04
END PERIOD

BEGIN PERIOD 264
  RECHARGE
    CONSTANT   0.31465680E-04
END PERIOD

BEGIN PERIOD 265
  RECHARGE
    CONSTANT   0.30354180E-04
END PERIOD

BEGIN PERIOD 266
  RECHARGE
    CONSTANT   0.29242080E-04
END PERIOD

BEGIN PERIOD 267
  RECHARGE
    CONSTANT   0.28167640E-04
END PERIOD

BEGIN PERIOD 268
  RECHARGE
    CONSTANT   0.27096450E-04
END PERIOD

BEGIN PERIOD 269
  RECHARGE
    CONSTANT   0.26066090E-04
END PERIOD

BEGIN PERIOD 270
  RECHARGE
    CONSTANT   0.25034250E-04
END PERIOD

BEGIN PERIOD 271
  RECHARGE
    CONSTANT   0.24036610E-04
END PERIOD

BEGIN PERIOD 272
  RECHARGE
    CONSTANT   0.23060000E-04
END PERIOD

BEGIN PERIOD 273
  RECHARGE
    CONSTANT   0.22121770E-04
END PERIOD

BEGIN PERIOD 274
  RECHARGE
    CONSTANT   0.21199940E-04
END PERIOD

BEGIN PERIOD 275
  RECHARGE
    CONSTANT   0.20287480E-04
END PERIOD

BEGIN PERIOD 276
  RECHARGE
    CONSTANT   0.19408070E-04
END PERIOD

BEGIN PERIOD 277
  RECHARGE
    CONSTANT   0.18552430E-04
END PERIOD

BEGIN PERIOD 278
  RECHARGE
    CONSTANT   0.17726210E-04
END PERIOD

BEGIN PERIOD 279
  RECHARGE
    CONSTANT   0.16924830E-04
END PERIOD

BEGIN PERIOD 280
  RECHARGE
    CONSTANT   0.16144880E-04
END PERIOD

BEGIN PERIOD 281
  RECHARGE
    CONSTANT   0.15387370E-04
END PERIOD

BEGIN PERIOD 282
  RECHARGE
    CONSTANT   0.14644000E-04
END PERIOD

BEGIN PERIOD 283
  RECHARGE
    CONSTANT   0.13945240E-04
END PERIOD

BEGIN PERIOD 284
  RECHARGE
    CONSTANT   0.13256000E-04
END PERIOD

BEGIN PERIOD 285
  RECHARGE
    CONSTANT   0.12607320E-04
END PERIOD

BEGIN PERIOD 286
  RECHARGE
    CONSTANT   0.11972870E-04
END PERIOD

BEGIN PERIOD 287
  RECHARGE
    CONSTANT   0.11376610E-04
END PERIOD

BEGIN PERIOD 288
  RECHARGE
    CONSTANT   0.10795130E-04
END PERIOD

BEGIN PERIOD 289
  RECHARGE
    CONSTANT   0.10247420E-04
END PERIOD

BEGIN PERIOD 290
  RECHARGE
    CONSTANT   0.97220450E-05
END PERIOD

BEGIN PERIOD 291
  RECHARGE
    CONSTANT   0.92276100E-05
END PERIOD

BEGIN PERIOD 292
  RECHARGE
    CONSTANT   0.87620170E-05
END PERIOD

BEGIN PERIOD 293
  RECHARGE
    CONSTANT   0.83201080E-05
END PERIOD

BEGIN PERIOD 294
  RECHARGE
    CONSTANT   0.79039600E-05
END PERIOD

BEGIN PERIOD 295
  RECHARGE
    CONSTANT   0.75102670E-05
END PERIOD

BEGIN PERIOD 296
  RECHARGE
    CONSTANT   0.71532210E-05
END PERIOD

BEGIN PERIOD 297
  RECHARGE
    CONSTANT   0.68195980E-05
END PERIOD

BEGIN PERIOD 298
  RECHARGE
    CONSTANT   0.65179480E-05
END PERIOD

BEGIN PERIOD 299
  RECHARGE
    CONSTANT   0.62347480E-05
END PERIOD

BEGIN PERIOD 300
  RECHARGE
    CONSTANT   0.59880910E-05
END PERIOD

BEGIN PERIOD 301
  RECHARGE
    CONSTANT   0.57679770E-05
END PERIOD

BEGIN PERIOD 302
  RECHARGE
    CONSTANT   0.55727040E-05
END PERIOD

BEGIN PERIOD 303
  RECHARGE
    CONSTANT   0.54097980E-05
END PERIOD

BEGIN PERIOD 304
  RECHARGE
    CONSTANT   0.52730390E-05
END PERIOD

BEGIN PERIOD 305
  RECHARGE
    CONSTANT   0.51639890E-05
END PERIOD

BEGIN PERIOD 306
  RECHARGE
    CONSTANT   0.50817700E-05
END PERIOD

BEGIN PERIOD 307
  RECHARGE
    CONSTANT   0.50277300E-05
END PERIOD

BEGIN PERIOD 308
  RECHARGE
    CONSTANT   0.50060040E-05
END PERIOD

BEGIN PERIOD 309
  RECHARGE
    CONSTANT   0.50070900E-05
END PERIOD

BEGIN PERIOD 310
  RECHARGE
    CONSTANT   0.50392710E-05
END PERIOD

BEGIN PERIOD 311
  RECHARGE
    CONSTANT   0.50997720E-05
END PERIOD

BEGIN PERIOD 312
  RECHARGE
    CONSTANT   0.51901370E-05
END PERIOD

BEGIN PERIOD 313
  RECHARGE
    CONSTANT   0.53077220E-05
END PERIOD

BEGIN PERIOD 314
  RECHARGE
    CONSTANT   0.54511450E-05
END PERIOD

BEGIN PERIOD 315
  RECHARGE
    CONSTANT   0.56266360E-05
END PERIOD

BEGIN PERIOD 316
  RECHARGE
    CONSTANT   0.58220680E-05
END PERIOD

BEGIN PERIOD 317
  RECHARGE
    CONSTANT   0.60543550E-05
END PERIOD

BEGIN PERIOD 318
  RECHARGE
    CONSTANT   0.63137630E-05
END PERIOD

BEGIN PERIOD 319
  RECHARGE
    CONSTANT   0.65952290E-05
END PERIOD

BEGIN PERIOD 320
  RECHARGE
    CONSTANT   0.69089010E-05
END PERIOD

BEGIN PERIOD 321
  RECHARGE
    CONSTANT   0.72489470E-05
END PERIOD

BEGIN PERIOD 322
  RECHARGE
    CONSTANT   0.76191980E-05
END PERIOD

BEGIN PERIOD 323
  RECHARGE
    CONSTANT   0.80120620E-05
END PERIOD

BEGIN PERIOD 324
  RECHARGE
    CONSTANT   0.84377780E-05
END PERIOD

BEGIN PERIOD 325
  RECHARGE
    CONSTANT   0.88868800E-05
END PERIOD

BEGIN PERIOD 326
  RECHARGE
    CONSTANT   0.93616970E-05
END PERIOD

BEGIN PERIOD 327
  RECHARGE
    CONSTANT   0.98618370E-05
END PERIOD

BEGIN PERIOD 328
  RECHARGE
    CONSTANT   0.10394630E-04
END PERIOD

BEGIN PERIOD 329
  RECHARGE
    CONSTANT   0.10949800E-04
END PERIOD

BEGIN PERIOD 330
  RECHARGE
    CONSTANT   0.11541470E-04
END PERIOD

BEGIN PERIOD 331
  RECHARGE
    CONSTANT   0.12146210E-04
END PERIOD

BEGIN PERIOD 332
  RECHARGE
    CONSTANT   0.12785170E-04
END PERIOD

BEGIN PERIOD 333
  RECHARGE
    CONSTANT   0.13446970E-04
END PERIOD

BEGIN PERIOD 334
  RECHARGE
    CONSTANT   0.14129610E-04
END PERIOD

BEGIN PERIOD 335
  RECHARGE
    CONSTANT   0.14840190E-04
END PERIOD

BEGIN PERIOD 336
  RECHARGE
    CONSTANT   0.15587080E-04
END PERIOD

BEGIN PERIOD 337
  RECHARGE
    CONSTANT   0.16345230E-04
END PERIOD

BEGIN PERIOD 338
  RECHARGE
    CONSTANT   0.17139500E-04
END PERIOD

BEGIN PERIOD 339
  RECHARGE
    CONSTANT   0.17959190E-04
END PERIOD

BEGIN PERIOD 340
  RECHARGE
    CONSTANT   0.18783840E-04
END PERIOD

BEGIN PERIOD 341
  RECHARGE
    CONSTANT   0.19649670E-04
END PERIOD

BEGIN PERIOD 342
  RECHARGE
    CONSTANT   0.20544990E-04
END PERIOD

BEGIN PERIOD 343
  RECHARGE
    CONSTANT   0.21441840E-04
END PERIOD

BEGIN PERIOD 344
  RECHARGE
    CONSTANT   0.22386970E-04
END PERIOD

BEGIN PERIOD 345
  RECHARGE
    CONSTANT   0.23327760E-04
END PERIOD

BEGIN PERIOD 346
  RECHARGE
    CONSTANT   0.24317090E-04
END PERIOD

BEGIN PERIOD 347
  RECHARGE
    CONSTANT   0.25313750E-04
END PERIOD

BEGIN PERIOD 348
  RECHARGE
    CONSTANT   0.26330420E-04
END PERIOD

BEGIN PERIOD 349
  RECHARGE
    CONSTANT   0.27385880E-04
END PERIOD

BEGIN PERIOD 350
  RECHARGE
    CONSTANT   0.28449330E-04
END PERIOD

BEGIN PERIOD 351
  RECHARGE
    CONSTANT   0.29549950E-04
END PERIOD

BEGIN PERIOD 352
  RECHARGE
    CONSTANT   0.30652140E-04
END PERIOD

BEGIN PERIOD 353
  RECHARGE
    CONSTANT   0.31762520E-04
END PERIOD

BEGIN PERIOD 354
  RECHARGE
    CONSTANT   0.32919480E-04
END PERIOD

BEGIN PERIOD 355
  RECHARGE
    CONSTANT   0.34100780E-04
END PERIOD

BEGIN PERIOD 356
  RECHARGE
    CONSTANT   0.35280930E-04
END PERIOD

BEGIN PERIOD 357
  RECHARGE
    CONSTANT   0.36509900E-04
END PERIOD

BEGIN PERIOD 358
  RECHARGE
    CONSTANT   0.37714080E-04
END PERIOD

BEGIN PERIOD 359
  RECHARGE
    CONSTANT   0.38956900E-04
END PERIOD

BEGIN PERIOD 360
  RECHARGE
    CONSTANT   0.40247420E-04
END PERIOD

BEGIN PERIOD 361
  RECHARGE
    CONSTANT   0.41522940E-04
END PERIOD

BEGIN PERIOD 362
  RECHARGE
    CONSTANT   0.42803430E-04
END PERIOD

BEGIN PERIOD 363
  RECHARGE
    CONSTANT   0.44146250E-04
END PERIOD

BEGIN PERIOD 364
  RECHARGE
    CONSTANT   0.45445880E-04
END PERIOD

BEGIN PERIOD 365
  RECHARGE
    CONSTANT   0.46827440E-04
END PERIOD

BEGIN PERIOD 366
  RECHARGE
    CONSTANT   0.48182460E-04
END PERIOD

BEGIN PERIOD 367
  RECHARGE
    CONSTANT   0.49558780E-04
END PERIOD

BEGIN PERIOD 368
  RECHARGE
    CONSTANT   0.50960070E-04
END PERIOD

BEGIN PERIOD 369
  RECHARGE
    CONSTANT   0.52367250E-04
END PERIOD

BEGIN PERIOD 370
  RECHARGE
    CONSTANT   0.53811360E-04
END PERIOD

BEGIN PERIOD 371
  RECHARGE
    CONSTANT   0.55229610E-04
END PERIOD

BEGIN PERIOD 372
  RECHARGE
    CONSTANT   0.56686210E-04
END PERIOD

BEGIN PERIOD 373
  RECHARGE
    CONSTANT   0.58146590E-04
END PERIOD

BEGIN PERIOD 374
  RECHARGE
    CONSTANT   0.59627890E-04
END PERIOD

BEGIN PERIOD 375
  RECHARGE
    CONSTANT   0.61105250E-04
END PERIOD

BEGIN PERIOD 376
  RECHARGE
    CONSTANT   0.62629310E-04
END PERIOD

BEGIN PERIOD 377
  RECHARGE
    CONSTANT   0.64097450E-04
END PERIOD

BEGIN PERIOD 378
  RECHARGE
    CONSTANT   0.65652300E-04
END PERIOD

BEGIN PERIOD 379
  RECHARGE
    CONSTANT   0.67209140E-04
END PERIOD

BEGIN PERIOD 380
  RECHARGE
    CONSTANT   0.68720890E-04
END PERIOD

BEGIN PERIOD 381
  RECHARGE
    CONSTANT   0.70286600E-04
END PERIOD

BEGIN PERIOD 382
  RECHARGE
    CONSTANT   0.71850800E-04
END PERIOD

BEGIN PERIOD 383
  RECHARGE
    CONSTANT   0.73386090E-04
END PERIOD

BEGIN PERIOD 384
  RECHARGE
    CONSTANT   0.75011930E-04
END PERIOD

BEGIN PERIOD 385
  RECHARGE
    CONSTANT   0.76540690E-04
END PERIOD

BEGIN PERIOD 386
  RECHARGE
    CONSTANT   0.78155910E-04
END PERIOD

BEGIN PERIOD 387
  RECHARGE
    CONSTANT   0.79786320E-04
END PERIOD

BEGIN PERIOD 388
  RECHARGE
    CONSTANT   0.81353060E-04
END PERIOD

BEGIN PERIOD 389
  RECHARGE
    CONSTANT   0.82967640E-04
END PERIOD

BEGIN PERIOD 390
  RECHARGE
    CONSTANT   0.84543480E-04
END PERIOD

BEGIN PERIOD 391
  RECHARGE
    CONSTANT   0.86151710E-04
END PERIOD

BEGIN PERIOD 392
  RECHARGE
    CONSTANT   0.87824810E-04
END PERIOD

BEGIN PERIOD 393
  RECHARGE
    CONSTANT   0.89416080E-04
END PERIOD

BEGIN PERIOD 394
  RECHARGE
    CONSTANT   0.91069630E-04
END PERIOD

BEGIN PERIOD 395
  RECHARGE
    CONSTANT   0.92718590E-04
END PERIOD

BEGIN PERIOD 396
  RECHARGE
    CONSTANT   0.94360980E-04
END PERIOD

BEGIN PERIOD 397
  RECHARGE
    CONSTANT   0.95952270E-04
END PERIOD

BEGIN PERIOD 398
  RECHARGE
    CONSTANT   0.97578650E-04
END PERIOD

BEGIN PERIOD 399
  RECHARGE
    CONSTANT   0.99224860E-04
END PERIOD

BEGIN PERIOD 400
  RECHARGE
    CONSTANT   0.10089330E-03
END PERIOD

BEGIN PERIOD 401
  RECHARGE
    CONSTANT   0.10254350E-03
END PERIOD

BEGIN PERIOD 402
  RECHARGE
    CONSTANT   0.10416540E-03
END PERIOD

BEGIN PERIOD 403
  RECHARGE
    CONSTANT   0.10577030E-03
END PERIOD

BEGIN PERIOD 404
  RECHARGE
    CONSTANT   0.10741400E-03
END PERIOD

BEGIN PERIOD 405
  RECHARGE
    CONSTANT   0.10903030E-03
END PERIOD

BEGIN PERIOD 406
  RECHARGE
    CONSTANT   0.11074550E-03
END PERIOD

BEGIN PERIOD 407
  RECHARGE
    CONSTANT   0.11234300E-03
END PERIOD

BEGIN PERIOD 408
  RECHARGE
    CONSTANT   0.11394100E-03
END PERIOD

BEGIN PERIOD 409
  RECHARGE
    CONSTANT   0.11552580E-03
END PERIOD

BEGIN PERIOD 410
  RECHARGE
    CONSTANT   0.11715360E-03
END PERIOD

BEGIN PERIOD 411
  RECHARGE
    CONSTANT   0.11881280E-03
END PERIOD

BEGIN PERIOD 412
  RECHARGE
    CONSTANT   0.12037910E-03
END PERIOD

BEGIN PERIOD 413
  RECHARGE
    CONSTANT   0.12198650E-03
END PERIOD

BEGIN PERIOD 414
  RECHARGE
    CONSTANT   0.12356970E-03
END PERIOD

BEGIN PERIOD 415
  RECHARGE
    CONSTANT   0.12513300E-03
END PERIOD

BEGIN PERIOD 416
  RECHARGE
    CONSTANT   0.12673070E-03
END PERIOD

BEGIN PERIOD 417
  RECHARGE
    CONSTANT   0.12833650E-03
END PERIOD

BEGIN PERIOD 418
  RECHARGE
    CONSTANT   0.12991810E-03
END PERIOD

BEGIN PERIOD 419
  RECHARGE
    CONSTANT   0.13143680E-03
END PERIOD

BEGIN PERIOD 420
  RECHARGE
    CONSTANT   0.13293020E-03
END PERIOD

BEGIN PERIOD 421
  RECHARGE
    CONSTANT   0.13454420E-03
END PERIOD

BEGIN PERIOD 422
  RECHARGE
    CONSTANT   0.13605230E-03
END PERIOD

BEGIN PERIOD 423
  RECHARGE
    CONSTANT   0.13755710E-03
END PERIOD

BEGIN PERIOD 424
  RECHARGE
    CONSTANT   0.13896510E-03
END PERIOD

BEGIN PERIOD 425
  RECHARGE
    CONSTANT   0.14054940E-03
END PERIOD

BEGIN PERIOD 426
  RECHARGE
    CONSTANT   0.14202740E-03
END PERIOD

BEGIN PERIOD 427
  RECHARGE
    CONSTANT   0.14343470E-03
END PERIOD

BEGIN PERIOD 428
  RECHARGE
    CONSTANT   0.14493110E-03
END PERIOD

BEGIN PERIOD 429
  RECHARGE