# WEL6 input file, prepared by MF5to6 on 6/18/2020 at 8:51:27.

BEGIN Options
  PRINT_INPUT
  PRINT_FLOWS
  SAVE_FLOWS
END Options

BEGIN Dimensions
  MAXBOUND  6
END Dimensions

BEGIN PERIOD 1
  3  29  50   -150.00000
  3  35  41   -150.00000
  3  62  44   -150.00000
  3  80  32   -150.00000
  3  89  20   -150.00000
  3  104  38   -150.00000
END PERIOD

BEGIN PERIOD 2
  3  29  50   -150.10254
  3  35  41   -150.10254
  3  62  44   -150.10254
  3  80  32   -150.10254
  3  89  20   -150.10254
  3  104  38   -150.10254
END PERIOD

BEGIN PERIOD 3
  3  29  50   -150.13797
  3  35  41   -150.13797
  3  62  44   -150.13797
  3  80  32   -150.13797
  3  89  20   -150.13797
  3  104  38   -150.13797
END PERIOD

BEGIN PERIOD 4
  3  29  50   -150.04286
  3  35  41   -150.04286
  3  62  44   -150.04286
  3  80  32   -150.04286
  3  89  20   -150.04286
  3  104  38   -150.04286
END PERIOD

BEGIN PERIOD 5
  3  29  50   -150.11327
  3  35  41   -150.11327
  3  62  44   -150.11327
  3  80  32   -150.11327
  3  89  20   -150.11327
  3  104  38   -150.11327
END PERIOD

BEGIN PERIOD 6
  3  29  50   -150.04684
  3  35  41   -150.04684
  3  62  44   -150.04684
  3  80  32   -150.04684
  3  89  20   -150.04684
  3  104  38   -150.04684
END PERIOD

BEGIN PERIOD 7
  3  29  50   -150.05902
  3  35  41   -150.05902
  3  62  44   -150.05902
  3  80  32   -150.05902
  3  89  20   -150.05902
  3  104  38   -150.05902
END PERIOD

BEGIN PERIOD 8
  3  29  50   -150.06683
  3  35  41   -150.06683
  3  62  44   -150.06683
  3  80  32   -150.06683
  3  89  20   -150.06683
  3  104  38   -150.06683
END PERIOD

BEGIN PERIOD 9
  3  29  50   -150.00589
  3  35  41   -150.00589
  3  62  44   -150.00589
  3  80  32   -150.00589
  3  89  20   -150.00589
  3  104  38   -150.00589
END PERIOD

BEGIN PERIOD 10
  3  29  50   -150.04237
  3  35  41   -150.04237
  3  62  44   -150.04237
  3  80  32   -150.04237
  3  89  20   -150.04237
  3  104  38   -150.04237
END PERIOD

BEGIN PERIOD 11
  3  29  50   -150.05626
  3  35  41   -150.05626
  3  62  44   -150.05626
  3  80  32   -150.05626
  3  89  20   -150.05626
  3  104  38   -150.05626
END PERIOD

BEGIN PERIOD 12
  3  29  50   -150.14638
  3  35  41   -150.14638
  3  62  44   -150.14638
  3  80  32   -150.14638
  3  89  20   -150.14638
  3  104  38   -150.14638
END PERIOD

BEGIN PERIOD 13
  3  29  50   -150.06857
  3  35  41   -150.06857
  3  62  44   -150.06857
  3  80  32   -150.06857
  3  89  20   -150.06857
  3  104  38   -150.06857
END PERIOD

BEGIN PERIOD 14
  3  29  50   -150.08310
  3  35  41   -150.08310
  3  62  44   -150.08310
  3  80  32   -150.08310
  3  89  20   -150.08310
  3  104  38   -150.08310
END PERIOD

BEGIN PERIOD 15
  3  29  50   -150.12439
  3  35  41   -150.12439
  3  62  44   -150.12439
  3  80  32   -150.12439
  3  89  20   -150.12439
  3  104  38   -150.12439
END PERIOD

BEGIN PERIOD 16
  3  29  50   -150.00478
  3  35  41   -150.00478
  3  62  44   -150.00478
  3  80  32   -150.00478
  3  89  20   -150.00478
  3  104  38   -150.00478
END PERIOD

BEGIN PERIOD 17
  3  29  50   -150.01225
  3  35  41   -150.01225
  3  62  44   -150.01225
  3  80  32   -150.01225
  3  89  20   -150.01225
  3  104  38   -150.01225
END PERIOD

BEGIN PERIOD 18
  3  29  50   -150.04977
  3  35  41   -150.04977
  3  62  44   -150.04977
  3  80  32   -150.04977
  3  89  20   -150.04977
  3  104  38   -150.04977
END PERIOD

BEGIN PERIOD 19
  3  29  50   -150.02948
  3  35  41   -150.02948
  3  62  44   -150.02948
  3  80  32   -150.02948
  3  89  20   -150.02948
  3  104  38   -150.02948
END PERIOD

BEGIN PERIOD 20
  3  29  50   -150.08087
  3  35  41   -150.08087
  3  62  44   -150.08087
  3  80  32   -150.08087
  3  89  20   -150.08087
  3  104  38   -150.08087
END PERIOD

BEGIN PERIOD 21
  3  29  50   -150.12837
  3  35  41   -150.12837
  3  62  44   -150.12837
  3  80  32   -150.12837
  3  89  20   -150.12837
  3  104  38   -150.12837
END PERIOD

BEGIN PERIOD 22
  3  29  50   -150.01512
  3  35  41   -150.01512
  3  62  44   -150.01512
  3  80  32   -150.01512
  3  89  20   -150.01512
  3  104  38   -150.01512
END PERIOD

BEGIN PERIOD 23
  3  29  50   -150.12453
  3  35  41   -150.12453
  3  62  44   -150.12453
  3  80  32   -150.12453
  3  89  20   -150.12453
  3  104  38   -150.12453
END PERIOD

BEGIN PERIOD 24
  3  29  50   -150.12024
  3  35  41   -150.12024
  3  62  44   -150.12024
  3  80  32   -150.12024
  3  89  20   -150.12024
  3  104  38   -150.12024
END PERIOD

BEGIN PERIOD 25
  3  29  50   -150.10437
  3  35  41   -150.10437
  3  62  44   -150.10437
  3  80  32   -150.10437
  3  89  20   -150.10437
  3  104  38   -150.10437
END PERIOD

BEGIN PERIOD 26
  3  29  50   -150.11278
  3  35  41   -150.11278
  3  62  44   -150.11278
  3  80  32   -150.11278
  3  89  20   -150.11278
  3  104  38   -150.11278
END PERIOD

BEGIN PERIOD 27
  3  29  50   -150.14458
  3  35  41   -150.14458
  3  62  44   -150.14458
  3  80  32   -150.14458
  3  89  20   -150.14458
  3  104  38   -150.14458
END PERIOD

BEGIN PERIOD 28
  3  29  50   -150.02405
  3  35  41   -150.02405
  3  62  44   -150.02405
  3  80  32   -150.02405
  3  89  20   -150.02405
  3  104  38   -150.02405
END PERIOD

BEGIN PERIOD 29
  3  29  50   -150.02556
  3  35  41   -150.02556
  3  62  44   -150.02556
  3  80  32   -150.02556
  3  89  20   -150.02556
  3  104  38   -150.02556
END PERIOD

BEGIN PERIOD 30
  3  29  50   -150.02400
  3  35  41   -150.02400
  3  62  44   -150.02400
  3  80  32   -150.02400
  3  89  20   -150.02400
  3  104  38   -150.02400
END PERIOD

BEGIN PERIOD 31
  3  29  50   -150.05371
  3  35  41   -150.05371
  3  62  44   -150.05371
  3  80  32   -150.05371
  3  89  20   -150.05371
  3  104  38   -150.05371
END PERIOD

BEGIN PERIOD 32
  3  29  50   -150.02243
  3  35  41   -150.02243
  3  62  44   -150.02243
  3  80  32   -150.02243
  3  89  20   -150.02243
  3  104  38   -150.02243
END PERIOD

BEGIN PERIOD 33
  3  29  50   -150.08336
  3  35  41   -150.08336
  3  62  44   -150.08336
  3  80  32   -150.08336
  3  89  20   -150.08336
  3  104  38   -150.08336
END PERIOD

BEGIN PERIOD 34
  3  29  50   -150.11108
  3  35  41   -150.11108
  3  62  44   -150.11108
  3  80  32   -150.11108
  3  89  20   -150.11108
  3  104  38   -150.11108
END PERIOD

BEGIN PERIOD 35
  3  29  50   -150.04400
  3  35  41   -150.04400
  3  62  44   -150.04400
  3  80  32   -150.04400
  3  89  20   -150.04400
  3  104  38   -150.04400
END PERIOD

BEGIN PERIOD 36
  3  29  50   -150.11014
  3  35  41   -150.11014
  3  62  44   -150.11014
  3  80  32   -150.11014
  3  89  20   -150.11014
  3  104  38   -150.11014
END PERIOD

BEGIN PERIOD 37
  3  29  50   -150.08894
  3  35  41   -150.08894
  3  62  44   -150.08894
  3  80  32   -150.08894
  3  89  20   -150.08894
  3  104  38   -150.08894
END PERIOD

BEGIN PERIOD 38
  3  29  50   -150.03546
  3  35  41   -150.03546
  3  62  44   -150.03546
  3  80  32   -150.03546
  3  89  20   -150.03546
  3  104  38   -150.03546
END PERIOD

BEGIN PERIOD 39
  3  29  50   -150.09526
  3  35  41   -150.09526
  3  62  44   -150.09526
  3  80  32   -150.09526
  3  89  20   -150.09526
  3  104  38   -150.09526
END PERIOD

BEGIN PERIOD 40
  3  29  50   -150.05817
  3  35  41   -150.05817
  3  62  44   -150.05817
  3  80  32   -150.05817
  3  89  20   -150.05817
  3  104  38   -150.05817
END PERIOD

BEGIN PERIOD 41
  3  29  50   -150.11600
  3  35  41   -150.11600
  3  62  44   -150.11600
  3  80  32   -150.11600
  3  89  20   -150.11600
  3  104  38   -150.11600
END PERIOD

BEGIN PERIOD 42
  3  29  50   -150.05244
  3  35  41   -150.05244
  3  62  44   -150.05244
  3  80  32   -150.05244
  3  89  20   -150.05244
  3  104  38   -150.05244
END PERIOD

BEGIN PERIOD 43
  3  29  50   -150.04501
  3  35  41   -150.04501
  3  62  44   -150.04501
  3  80  32   -150.04501
  3  89  20   -150.04501
  3  104  38   -150.04501
END PERIOD

BEGIN PERIOD 44
  3  29  50   -150.03957
  3  35  41   -150.03957
  3  62  44   -150.03957
  3  80  32   -150.03957
  3  89  20   -150.03957
  3  104  38   -150.03957
END PERIOD

BEGIN PERIOD 45
  3  29  50   -150.13382
  3  35  41   -150.13382
  3  62  44   -150.13382
  3  80  32   -150.13382
  3  89  20   -150.13382
  3  104  38   -150.13382
END PERIOD

BEGIN PERIOD 46
  3  29  50   -150.10667
  3  35  41   -150.10667
  3  62  44   -150.10667
  3  80  32   -150.10667
  3  89  20   -150.10667
  3  104  38   -150.10667
END PERIOD

BEGIN PERIOD 47
  3  29  50   -150.07675
  3  35  41   -150.07675
  3  62  44   -150.07675
  3  80  32   -150.07675
  3  89  20   -150.07675
  3  104  38   -150.07675
END PERIOD

BEGIN PERIOD 48
  3  29  50   -150.11046
  3  35  41   -150.11046
  3  62  44   -150.11046
  3  80  32   -150.11046
  3  89  20   -150.11046
  3  104  38   -150.11046
END PERIOD

BEGIN PERIOD 49
  3  29  50   -150.09180
  3  35  41   -150.09180
  3  62  44   -150.09180
  3  80  32   -150.09180
  3  89  20   -150.09180
  3  104  38   -150.09180
END PERIOD

BEGIN PERIOD 50
  3  29  50   -150.08392
  3  35  41   -150.08392
  3  62  44   -150.08392
  3  80  32   -150.08392
  3  89  20   -150.08392
  3  104  38   -150.08392
END PERIOD

BEGIN PERIOD 51
  3  29  50   -150.14226
  3  35  41   -150.14226
  3  62  44   -150.14226
  3  80  32   -150.14226
  3  89  20   -150.14226
  3  104  38   -150.14226
END PERIOD

BEGIN PERIOD 52
  3  29  50   -150.10966
  3  35  41   -150.10966
  3  62  44   -150.10966
  3  80  32   -150.10966
  3  89  20   -150.10966
  3  104  38   -150.10966
END PERIOD

BEGIN PERIOD 53
  3  29  50   -150.03722
  3  35  41   -150.03722
  3  62  44   -150.03722
  3  80  32   -150.03722
  3  89  20   -150.03722
  3  104  38   -150.03722
END PERIOD

BEGIN PERIOD 54
  3  29  50   -150.14163
  3  35  41   -150.14163
  3  62  44   -150.14163
  3  80  32   -150.14163
  3  89  20   -150.14163
  3  104  38   -150.14163
END PERIOD

BEGIN PERIOD 55
  3  29  50   -150.01889
  3  35  41   -150.01889
  3  62  44   -150.01889
  3  80  32   -150.01889
  3  89  20   -150.01889
  3  104  38   -150.01889
END PERIOD

BEGIN PERIOD 56
  3  29  50   -150.13327
  3  35  41   -150.13327
  3  62  44   -150.13327
  3  80  32   -150.13327
  3  89  20   -150.13327
  3  104  38   -150.13327
END PERIOD

BEGIN PERIOD 57
  3  29  50   -150.04520
  3  35  41   -150.04520
  3  62  44   -150.04520
  3  80  32   -150.04520
  3  89  20   -150.04520
  3  104  38   -150.04520
END PERIOD

BEGIN PERIOD 58
  3  29  50   -150.06744
  3  35  41   -150.06744
  3  62  44   -150.06744
  3  80  32   -150.06744
  3  89  20   -150.06744
  3  104  38   -150.06744
END PERIOD

BEGIN PERIOD 59
  3  29  50   -150.00471
  3  35  41   -150.00471
  3  62  44   -150.00471
  3  80  32   -150.00471
  3  89  20   -150.00471
  3  104  38   -150.00471
END PERIOD

BEGIN PERIOD 60
  3  29  50   -150.05745
  3  35  41   -150.05745
  3  62  44   -150.05745
  3  80  32   -150.05745
  3  89  20   -150.05745
  3  104  38   -150.05745
END PERIOD

BEGIN PERIOD 61
  3  29  50   -150.06960
  3  35  41   -150.06960
  3  62  44   -150.06960
  3  80  32   -150.06960
  3  89  20   -150.06960
  3  104  38   -150.06960
END PERIOD

BEGIN PERIOD 62
  3  29  50   -150.12624
  3  35  41   -150.12624
  3  62  44   -150.12624
  3  80  32   -150.12624
  3  89  20   -150.12624
  3  104  38   -150.12624
END PERIOD

BEGIN PERIOD 63
  3  29  50   -150.08910
  3  35  41   -150.08910
  3  62  44   -150.08910
  3  80  32   -150.08910
  3  89  20   -150.08910
  3  104  38   -150.08910
END PERIOD

BEGIN PERIOD 64
  3  29  50   -150.10802
  3  35  41   -150.10802
  3  62  44   -150.10802
  3  80  32   -150.10802
  3  89  20   -150.10802
  3  104  38   -150.10802
END PERIOD

BEGIN PERIOD 65
  3  29  50   -150.00623
  3  35  41   -150.00623
  3  62  44   -150.00623
  3  80  32   -150.00623
  3  89  20   -150.00623
  3  104  38   -150.00623
END PERIOD

BEGIN PERIOD 66
  3  29  50   -150.00826
  3  35  41   -150.00826
  3  62  44   -150.00826
  3  80  32   -150.00826
  3  89  20   -150.00826
  3  104  38   -150.00826
END PERIOD

BEGIN PERIOD 67
  3  29  50   -150.00575
  3  35  41   -150.00575
  3  62  44   -150.00575
  3  80  32   -150.00575
  3  89  20   -150.00575
  3  104  38   -150.00575
END PERIOD

BEGIN PERIOD 68
  3  29  50   -150.08925
  3  35  41   -150.08925
  3  62  44   -150.08925
  3  80  32   -150.08925
  3  89  20   -150.08925
  3  104  38   -150.08925
END PERIOD

BEGIN PERIOD 69
  3  29  50   -150.14003
  3  35  41   -150.14003
  3  62  44   -150.14003
  3  80  32   -150.14003
  3  89  20   -150.14003
  3  104  38   -150.14003
END PERIOD

BEGIN PERIOD 70
  3  29  50   -150.14784
  3  35  41   -150.14784
  3  62  44   -150.14784
  3  80  32   -150.14784
  3  89  20   -150.14784
  3  104  38   -150.14784
END PERIOD

BEGIN PERIOD 71
  3  29  50   -150.00940
  3  35  41   -150.00940
  3  62  44   -150.00940
  3  80  32   -150.00940
  3  89  20   -150.00940
  3  104  38   -150.00940
END PERIOD

BEGIN PERIOD 72
  3  29  50   -150.12463
  3  35  41   -150.12463
  3  62  44   -150.12463
  3  80  32   -150.12463
  3  89  20   -150.12463
  3  104  38   -150.12463
END PERIOD

BEGIN PERIOD 73
  3  29  50   -150.13077
  3  35  41   -150.13077
  3  62  44   -150.13077
  3  80  32   -150.13077
  3  89  20   -150.13077
  3  104  38   -150.13077
END PERIOD

BEGIN PERIOD 74
  3  29  50   -150.00633
  3  35  41   -150.00633
  3  62  44   -150.00633
  3  80  32   -150.00633
  3  89  20   -150.00633
  3  104  38   -150.00633
END PERIOD

BEGIN PERIOD 75
  3  29  50   -150.04642
  3  35  41   -150.04642
  3  62  44   -150.04642
  3  80  32   -150.04642
  3  89  20   -150.04642
  3  104  38   -150.04642
END PERIOD

BEGIN PERIOD 76
  3  29  50   -150.09155
  3  35  41   -150.09155
  3  62  44   -150.09155
  3  80  32   -150.09155
  3  89  20   -150.09155
  3  104  38   -150.09155
END PERIOD

BEGIN PERIOD 77
  3  29  50   -150.13830
  3  35  41   -150.13830
  3  62  44   -150.13830
  3  80  32   -150.13830
  3  89  20   -150.13830
  3  104  38   -150.13830
END PERIOD

BEGIN PERIOD 78
  3  29  50   -150.07086
  3  35  41   -150.07086
  3  62  44   -150.07086
  3  80  32   -150.07086
  3  89  20   -150.07086
  3  104  38   -150.07086
END PERIOD

BEGIN PERIOD 79
  3  29  50   -150.12389
  3  35  41   -150.12389
  3  62  44   -150.12389
  3  80  32   -150.12389
  3  89  20   -150.12389
  3  104  38   -150.12389
END PERIOD

BEGIN PERIOD 80
  3  29  50   -150.09012
  3  35  41   -150.09012
  3  62  44   -150.09012
  3  80  32   -150.09012
  3  89  20   -150.09012
  3  104  38   -150.09012
END PERIOD

BEGIN PERIOD 81
  3  29  50   -150.13840
  3  35  41   -150.13840
  3  62  44   -150.13840
  3  80  32   -150.13840
  3  89  20   -150.13840
  3  104  38   -150.13840
END PERIOD

BEGIN PERIOD 82
  3  29  50   -150.09976
  3  35  41   -150.09976
  3  62  44   -150.09976
  3  80  32   -150.09976
  3  89  20   -150.09976
  3  104  38   -150.09976
END PERIOD

BEGIN PERIOD 83
  3  29  50   -150.12926
  3  35  41   -150.12926
  3  62  44   -150.12926
  3  80  32   -150.12926
  3  89  20   -150.12926
  3  104  38   -150.12926
END PERIOD

BEGIN PERIOD 84
  3  29  50   -150.05923
  3  35  41   -150.05923
  3  62  44   -150.05923
  3  80  32   -150.05923
  3  89  20   -150.05923
  3  104  38   -150.05923
END PERIOD

BEGIN PERIOD 85
  3  29  50   -150.00626
  3  35  41   -150.00626
  3  62  44   -150.00626
  3  80  32   -150.00626
  3  89  20   -150.00626
  3  104  38   -150.00626
END PERIOD

BEGIN PERIOD 86
  3  29  50   -150.11702
  3  35  41   -150.11702
  3  62  44   -150.11702
  3  80  32   -150.11702
  3  89  20   -150.11702
  3  104  38   -150.11702
END PERIOD

BEGIN PERIOD 87
  3  29  50   -150.00800
  3  35  41   -150.00800
  3  62  44   -150.00800
  3  80  32   -150.00800
  3  89  20   -150.00800
  3  104  38   -150.00800
END PERIOD

BEGIN PERIOD 88
  3  29  50   -150.04454
  3  35  41   -150.04454
  3  62  44   -150.04454
  3  80  32   -150.04454
  3  89  20   -150.04454
  3  104  38   -150.04454
END PERIOD

BEGIN PERIOD 89
  3  29  50   -150.05820
  3  35  41   -150.05820
  3  62  44   -150.05820
  3  80  32   -150.05820
  3  89  20   -150.05820
  3  104  38   -150.05820
END PERIOD

BEGIN PERIOD 90
  3  29  50   -150.02730
  3  35  41   -150.02730
  3  62  44   -150.02730
  3  80  32   -150.02730
  3  89  20   -150.02730
  3  104  38   -150.02730
END PERIOD

BEGIN PERIOD 91
  3  29  50   -150.05318
  3  35  41   -150.05318
  3  62  44   -150.05318
  3  80  32   -150.05318
  3  89  20   -150.05318
  3  104  38   -150.05318
END PERIOD

BEGIN PERIOD 92
  3  29  50   -150.06587
  3  35  41   -150.06587
  3  62  44   -150.06587
  3  80  32   -150.06587
  3  89  20   -150.06587
  3  104  38   -150.06587
END PERIOD

BEGIN PERIOD 93
  3  29  50   -150.07779
  3  35  41   -150.07779
  3  62  44   -150.07779
  3  80  32   -150.07779
  3  89  20   -150.07779
  3  104  38   -150.07779
END PERIOD

BEGIN PERIOD 94
  3  29  50   -150.04387
  3  35  41   -150.04387
  3  62  44   -150.04387
  3  80  32   -150.04387
  3  89  20   -150.04387
  3  104  38   -150.04387
END PERIOD

BEGIN PERIOD 95
  3  29  50   -150.03930
  3  35  41   -150.03930
  3  62  44   -150.03930
  3  80  32   -150.03930
  3  89  20   -150.03930
  3  104  38   -150.03930
END PERIOD

BEGIN PERIOD 96
  3  29  50   -150.04286
  3  35  41   -150.04286
  3  62  44   -150.04286
  3  80  32   -150.04286
  3  89  20   -150.04286
  3  104  38   -150.04286
END PERIOD

BEGIN PERIOD 97
  3  29  50   -150.04778
  3  35  41   -150.04778
  3  62  44   -150.04778
  3  80  32   -150.04778
  3  89  20   -150.04778
  3  104  38   -150.04778
END PERIOD

BEGIN PERIOD 98
  3  29  50   -150.08502
  3  35  41   -150.08502
  3  62  44   -150.08502
  3  80  32   -150.08502
  3  89  20   -150.08502
  3  104  38   -150.08502
END PERIOD

BEGIN PERIOD 99
  3  29  50   -150.12790
  3  35  41   -150.12790
  3  62  44   -150.12790
  3  80  32   -150.12790
  3  89  20   -150.12790
  3  104  38   -150.12790
END PERIOD

BEGIN PERIOD 100
  3  29  50   -150.11632
  3  35  41   -150.11632
  3  62  44   -150.11632
  3  80  32   -150.11632
  3  89  20   -150.11632
  3  104  38   -150.11632
END PERIOD

BEGIN PERIOD 101
  3  29  50   -150.13838
  3  35  41   -150.13838
  3  62  44   -150.13838
  3  80  32   -150.13838
  3  89  20   -150.13838
  3  104  38   -150.13838
END PERIOD

BEGIN PERIOD 102
  3  29  50   -150.14920
  3  35  41   -150.14920
  3  62  44   -150.14920
  3  80  32   -150.14920
  3  89  20   -150.14920
  3  104  38   -150.14920
END PERIOD

BEGIN PERIOD 103
  3  29  50   -150.11206
  3  35  41   -150.11206
  3  62  44   -150.11206
  3  80  32   -150.11206
  3  89  20   -150.11206
  3  104  38   -150.11206
END PERIOD

BEGIN PERIOD 104
  3  29  50   -150.07160
  3  35  41   -150.07160
  3  62  44   -150.07160
  3  80  32   -150.07160
  3  89  20   -150.07160
  3  104  38   -150.07160
END PERIOD

BEGIN PERIOD 105
  3  29  50   -150.14049
  3  35  41   -150.14049
  3  62  44   -150.14049
  3  80  32   -150.14049
  3  89  20   -150.14049
  3  104  38   -150.14049
END PERIOD

BEGIN PERIOD 106
  3  29  50   -150.11934
  3  35  41   -150.11934
  3  62  44   -150.11934
  3  80  32   -150.11934
  3  89  20   -150.11934
  3  104  38   -150.11934
END PERIOD

BEGIN PERIOD 107
  3  29  50   -150.11044
  3  35  41   -150.11044
  3  62  44   -150.11044
  3  80  32   -150.11044
  3  89  20   -150.11044
  3  104  38   -150.11044
END PERIOD

BEGIN PERIOD 108
  3  29  50   -150.12273
  3  35  41   -150.12273
  3  62  44   -150.12273
  3  80  32   -150.12273
  3  89  20   -150.12273
  3  104  38   -150.12273
END PERIOD

BEGIN PERIOD 109
  3  29  50   -150.12890
  3  35  41   -150.12890
  3  62  44   -150.12890
  3  80  32   -150.12890
  3  89  20   -150.12890
  3  104  38   -150.12890
END PERIOD

BEGIN PERIOD 110
  3  29  50   -150.11385
  3  35  41   -150.11385
  3  62  44   -150.11385
  3  80  32   -150.11385
  3  89  20   -150.11385
  3  104  38   -150.11385
END PERIOD

BEGIN PERIOD 111
  3  29  50   -150.01265
  3  35  41   -150.01265
  3  62  44   -150.01265
  3  80  32   -150.01265
  3  89  20   -150.01265
  3  104  38   -150.01265
END PERIOD

BEGIN PERIOD 112
  3  29  50   -150.11049
  3  35  41   -150.11049
  3  62  44   -150.11049
  3  80  32   -150.11049
  3  89  20   -150.11049
  3  104  38   -150.11049
END PERIOD

BEGIN PERIOD 113
  3  29  50   -150.04549
  3  35  41   -150.04549
  3  62  44   -150.04549
  3  80  32   -150.04549
  3  89  20   -150.04549
  3  104  38   -150.04549
END PERIOD

BEGIN PERIOD 114
  3  29  50   -150.02174
  3  35  41   -150.02174
  3  62  44   -150.02174
  3  80  32   -150.02174
  3  89  20   -150.02174
  3  104  38   -150.02174
END PERIOD

BEGIN PERIOD 115
  3  29  50   -150.09383
  3  35  41   -150.09383
  3  62  44   -150.09383
  3  80  32   -150.09383
  3  89  20   -150.09383
  3  104  38   -150.09383
END PERIOD

BEGIN PERIOD 116
  3  29  50   -150.10344
  3  35  41   -150.10344
  3  62  44   -150.10344
  3  80  32   -150.10344
  3  89  20   -150.10344
  3  104  38   -150.10344
END PERIOD

BEGIN PERIOD 117
  3  29  50   -150.01363
  3  35  41   -150.01363
  3  62  44   -150.01363
  3  80  32   -150.01363
  3  89  20   -150.01363
  3  104  38   -150.01363
END PERIOD

BEGIN PERIOD 118
  3  29  50   -150.08904
  3  35  41   -150.08904
  3  62  44   -150.08904
  3  80  32   -150.08904
  3  89  20   -150.08904
  3  104  38   -150.08904
END PERIOD

BEGIN PERIOD 119
  3  29  50   -150.06152
  3  35  41   -150.06152
  3  62  44   -150.06152
  3  80  32   -150.06152
  3  89  20   -150.06152
  3  104  38   -150.06152
END PERIOD

BEGIN PERIOD 120
  3  29  50   -150.06868
  3  35  41   -150.06868
  3  62  44   -150.06868
  3  80  32   -150.06868
  3  89  20   -150.06868
  3  104  38   -150.06868
END PERIOD

BEGIN PERIOD 121
  3  29  50   -150.13320
  3  35  41   -150.13320
  3  62  44   -150.13320
  3  80  32   -150.13320
  3  89  20   -150.13320
  3  104  38   -150.13320
END PERIOD

BEGIN PERIOD 122
  3  29  50   -150.13922
  3  35  41   -150.13922
  3  62  44   -150.13922
  3  80  32   -150.13922
  3  89  20   -150.13922
  3  104  38   -150.13922
END PERIOD

BEGIN PERIOD 123
  3  29  50   -150.09271
  3  35  41   -150.09271
  3  62  44   -150.09271
  3  80  32   -150.09271
  3  89  20   -150.09271
  3  104  38   -150.09271
END PERIOD

BEGIN PERIOD 124
  3  29  50   -150.14302
  3  35  41   -150.14302
  3  62  44   -150.14302
  3  80  32   -150.14302
  3  89  20   -150.14302
  3  104  38   -150.14302
END PERIOD

BEGIN PERIOD 125
  3  29  50   -150.05463
  3  35  41   -150.05463
  3  62  44   -150.05463
  3  80  32   -150.05463
  3  89  20   -150.05463
  3  104  38   -150.05463
END PERIOD

BEGIN PERIOD 126
  3  29  50   -150.12291
  3  35  41   -150.12291
  3  62  44   -150.12291
  3  80  32   -150.12291
  3  89  20   -150.12291
  3  104  38   -150.12291
END PERIOD

BEGIN PERIOD 127
  3  29  50   -150.01549
  3  35  41   -150.01549
  3  62  44   -150.01549
  3  80  32   -150.01549
  3  89  20   -150.01549
  3  104  38   -150.01549
END PERIOD

BEGIN PERIOD 128
  3  29  50   -150.05325
  3  35  41   -150.05325
  3  62  44   -150.05325
  3  80  32   -150.05325
  3  89  20   -150.05325
  3  104  38   -150.05325
END PERIOD

BEGIN PERIOD 129
  3  29  50   -150.14224
  3  35  41   -150.14224
  3  62  44   -150.14224
  3  80  32   -150.14224
  3  89  20   -150.14224
  3  104  38   -150.14224
END PERIOD

BEGIN PERIOD 130
  3  29  50   -150.07324
  3  35  41   -150.07324
  3  62  44   -150.07324
  3  80  32   -150.07324
  3  89  20   -150.07324
  3  104  38   -150.07324
END PERIOD

BEGIN PERIOD 131
  3  29  50   -150.01477
  3  35  41   -150.01477
  3  62  44   -150.01477
  3  80  32   -150.01477
  3  89  20   -150.01477
  3  104  38   -150.01477
END PERIOD

BEGIN PERIOD 132
  3  29  50   -150.06982
  3  35  41   -150.06982
  3  62  44   -150.06982
  3  80  32   -150.06982
  3  89  20   -150.06982
  3  104  38   -150.06982
END PERIOD

BEGIN PERIOD 133
  3  29  50   -150.08005
  3  35  41   -150.08005
  3  62  44   -150.08005
  3  80  32   -150.08005
  3  89  20   -150.08005
  3  104  38   -150.08005
END PERIOD

BEGIN PERIOD 134
  3  29  50   -150.12856
  3  35  41   -150.12856
  3  62  44   -150.12856
  3  80  32   -150.12856
  3  89  20   -150.12856
  3  104  38   -150.12856
END PERIOD

BEGIN PERIOD 135
  3  29  50   -150.12616
  3  35  41   -150.12616
  3  62  44   -150.12616
  3  80  32   -150.12616
  3  89  20   -150.12616
  3  104  38   -150.12616
END PERIOD

BEGIN PERIOD 136
  3  29  50   -150.06485
  3  35  41   -150.06485
  3  62  44   -150.06485
  3  80  32   -150.06485
  3  89  20   -150.06485
  3  104  38   -150.06485
END PERIOD

BEGIN PERIOD 137
  3  29  50   -150.13734
  3  35  41   -150.13734
  3  62  44   -150.13734
  3  80  32   -150.13734
  3  89  20   -150.13734
  3  104  38   -150.13734
END PERIOD

BEGIN PERIOD 138
  3  29  50   -150.11930
  3  35  41   -150.11930
  3  62  44   -150.11930
  3  80  32   -150.11930
  3  89  20   -150.11930
  3  104  38   -150.11930
END PERIOD

BEGIN PERIOD 139
  3  29  50   -150.08940
  3  35  41   -150.08940
  3  62  44   -150.08940
  3  80  32   -150.08940
  3  89  20   -150.08940
  3  104  38   -150.08940
END PERIOD

BEGIN PERIOD 140
  3  29  50   -150.06627
  3  35  41   -150.06627
  3  62  44   -150.06627
  3  80  32   -150.06627
  3  89  20   -150.06627
  3  104  38   -150.06627
END PERIOD

BEGIN PERIOD 141
  3  29  50   -150.09636
  3  35  41   -150.09636
  3  62  44   -150.09636
  3  80  32   -150.09636
  3  89  20   -150.09636
  3  104  38   -150.09636
END PERIOD

BEGIN PERIOD 142
  3  29  50   -150.10652
  3  35  41   -150.10652
  3  62  44   -150.10652
  3  80  32   -150.10652
  3  89  20   -150.10652
  3  104  38   -150.10652
END PERIOD

BEGIN PERIOD 143
  3  29  50   -150.14870
  3  35  41   -150.14870
  3  62  44   -150.14870
  3  80  32   -150.14870
  3  89  20   -150.14870
  3  104  38   -150.14870
END PERIOD

BEGIN PERIOD 144
  3  29  50   -150.09804
  3  35  41   -150.09804
  3  62  44   -150.09804
  3  80  32   -150.09804
  3  89  20   -150.09804
  3  104  38   -150.09804
END PERIOD

BEGIN PERIOD 145
  3  29  50   -150.12099
  3  35  41   -150.12099
  3  62  44   -150.12099
  3  80  32   -150.12099
  3  89  20   -150.12099
  3  104  38   -150.12099
END PERIOD

BEGIN PERIOD 146
  3  29  50   -150.06535
  3  35  41   -150.06535
  3  62  44   -150.06535
  3  80  32   -150.06535
  3  89  20   -150.06535
  3  104  38   -150.06535
END PERIOD

BEGIN PERIOD 147
  3  29  50   -150.11090
  3  35  41   -150.11090
  3  62  44   -150.11090
  3  80  32   -150.11090
  3  89  20   -150.11090
  3  104  38   -150.11090
END PERIOD

BEGIN PERIOD 148
  3  29  50   -150.06926
  3  35  41   -150.06926
  3  62  44   -150.06926
  3  80  32   -150.06926
  3  89  20   -150.06926
  3  104  38   -150.06926
END PERIOD

BEGIN PERIOD 149
  3  29  50   -150.00684
  3  35  41   -150.00684
  3  62  44   -150.00684
  3  80  32   -150.00684
  3  89  20   -150.00684
  3  104  38   -150.00684
END PERIOD

BEGIN PERIOD 150
  3  29  50   -150.13620
  3  35  41   -150.13620
  3  62  44   -150.13620
  3  80  32   -150.13620
  3  89  20   -150.13620
  3  104  38   -150.13620
END PERIOD

BEGIN PERIOD 151
  3  29  50   -150.06265
  3  35  41   -150.06265
  3  62  44   -150.06265
  3  80  32   -150.06265
  3  89  20   -150.06265
  3  104  38   -150.06265
END PERIOD

BEGIN PERIOD 152
  3  29  50   -150.10239
  3  35  41   -150.10239
  3  62  44   -150.10239
  3  80  32   -150.10239
  3  89  20   -150.10239
  3  104  38   -150.10239
END PERIOD

BEGIN PERIOD 153
  3  29  50   -150.02899
  3  35  41   -150.02899
  3  62  44   -150.02899
  3  80  32   -150.02899
  3  89  20   -150.02899
  3  104  38   -150.02899
END PERIOD

BEGIN PERIOD 154
  3  29  50   -150.05608
  3  35  41   -150.05608
  3  62  44   -150.05608
  3  80  32   -150.05608
  3  89  20   -150.05608
  3  104  38   -150.05608
END PERIOD

BEGIN PERIOD 155
  3  29  50   -150.09329
  3  35  41   -150.09329
  3  62  44   -150.09329
  3  80  32   -150.09329
  3  89  20   -150.09329
  3  104  38   -150.09329
END PERIOD

BEGIN PERIOD 156
  3  29  50   -150.07285
  3  35  41   -150.07285
  3  62  44   -150.07285
  3  80  32   -150.07285
  3  89  20   -150.07285
  3  104  38   -150.07285
END PERIOD

BEGIN PERIOD 157
  3  29  50   -150.04633
  3  35  41   -150.04633
  3  62  44   -150.04633
  3  80  32   -150.04633
  3  89  20   -150.04633
  3  104  38   -150.04633
END PERIOD

BEGIN PERIOD 158
  3  29  50   -150.11635
  3  35  41   -150.11635
  3  62  44   -150.11635
  3  80  32   -150.11635
  3  89  20   -150.11635
  3  104  38   -150.11635
END PERIOD

BEGIN PERIOD 159
  3  29  50   -150.13120
  3  35  41   -150.13120
  3  62  44   -150.13120
  3  80  32   -150.13120
  3  89  20   -150.13120
  3  104  38   -150.13120
END PERIOD

BEGIN PERIOD 160
  3  29  50   -150.07378
  3  35  41   -150.07378
  3  62  44   -150.07378
  3  80  32   -150.07378
  3  89  20   -150.07378
  3  104  38   -150.07378
END PERIOD

BEGIN PERIOD 161
  3  29  50   -150.07782
  3  35  41   -150.07782
  3  62  44   -150.07782
  3  80  32   -150.07782
  3  89  20   -150.07782
  3  104  38   -150.07782
END PERIOD

BEGIN PERIOD 162
  3  29  50   -150.10265
  3  35  41   -150.10265
  3  62  44   -150.10265
  3  80  32   -150.10265
  3  89  20   -150.10265
  3  104  38   -150.10265
END PERIOD

BEGIN PERIOD 163
  3  29  50   -150.10080
  3  35  41   -150.10080
  3  62  44   -150.10080
  3  80  32   -150.10080
  3  89  20   -150.10080
  3  104  38   -150.10080
END PERIOD

BEGIN PERIOD 164
  3  29  50   -150.06937
  3  35  41   -150.06937
  3  62  44   -150.06937
  3  80  32   -150.06937
  3  89  20   -150.06937
  3  104  38   -150.06937
END PERIOD

BEGIN PERIOD 165
  3  29  50   -150.11607
  3  35  41   -150.11607
  3  62  44   -150.11607
  3  80  32   -150.11607
  3  89  20   -150.11607
  3  104  38   -150.11607
END PERIOD

BEGIN PERIOD 166
  3  29  50   -150.12602
  3  35  41   -150.12602
  3  62  44   -150.12602
  3  80  32   -150.12602
  3  89  20   -150.12602
  3  104  38   -150.12602
END PERIOD

BEGIN PERIOD 167
  3  29  50   -150.05003