# WEL6 input file, prepared by MF5to6 on 4/24/2020 at 15:15:01.

BEGIN Options
  PRINT_INPUT
  PRINT_FLOWS
  SAVE_FLOWS
END Options

BEGIN Dimensions
  MAXBOUND  6
END Dimensions

BEGIN PERIOD 1
  3  29  50   -150.00000
  3  35  41   -150.00000
  3  62  44   -150.00000
  3  80  32   -150.00000
  3  89  20   -150.00000
  3  104  38   -150.00000
END PERIOD

BEGIN PERIOD 2
  3  29  50   -224.12962
  3  35  41   -224.12962
  3  62  44   -224.12962
  3  80  32   -224.12962
  3  89  20   -224.12962
  3  104  38   -224.12962
END PERIOD

BEGIN PERIOD 3
  3  29  50   -222.02086
  3  35  41   -222.02086
  3  62  44   -222.02086
  3  80  32   -222.02086
  3  89  20   -222.02086
  3  104  38   -222.02086
END PERIOD

BEGIN PERIOD 4
  3  29  50   -219.89070
  3  35  41   -219.89070
  3  62  44   -219.89070
  3  80  32   -219.89070
  3  89  20   -219.89070
  3  104  38   -219.89070
END PERIOD

BEGIN PERIOD 5
  3  29  50   -217.73976
  3  35  41   -217.73976
  3  62  44   -217.73976
  3  80  32   -217.73976
  3  89  20   -217.73976
  3  104  38   -217.73976
END PERIOD

BEGIN PERIOD 6
  3  29  50   -215.56871
  3  35  41   -215.56871
  3  62  44   -215.56871
  3  80  32   -215.56871
  3  89  20   -215.56871
  3  104  38   -215.56871
END PERIOD

BEGIN PERIOD 7
  3  29  50   -213.37817
  3  35  41   -213.37817
  3  62  44   -213.37817
  3  80  32   -213.37817
  3  89  20   -213.37817
  3  104  38   -213.37817
END PERIOD

BEGIN PERIOD 8
  3  29  50   -211.03065
  3  35  41   -211.03065
  3  62  44   -211.03065
  3  80  32   -211.03065
  3  89  20   -211.03065
  3  104  38   -211.03065
END PERIOD

BEGIN PERIOD 9
  3  29  50   -208.94124
  3  35  41   -208.94124
  3  62  44   -208.94124
  3  80  32   -208.94124
  3  89  20   -208.94124
  3  104  38   -208.94124
END PERIOD

BEGIN PERIOD 10
  3  29  50   -206.69618
  3  35  41   -206.69618
  3  62  44   -206.69618
  3  80  32   -206.69618
  3  89  20   -206.69618
  3  104  38   -206.69618
END PERIOD

BEGIN PERIOD 11
  3  29  50   -204.43427
  3  35  41   -204.43427
  3  62  44   -204.43427
  3  80  32   -204.43427
  3  89  20   -204.43427
  3  104  38   -204.43427
END PERIOD

BEGIN PERIOD 12
  3  29  50   -202.15620
  3  35  41   -202.15620
  3  62  44   -202.15620
  3  80  32   -202.15620
  3  89  20   -202.15620
  3  104  38   -202.15620
END PERIOD

BEGIN PERIOD 13
  3  29  50   -199.86261
  3  35  41   -199.86261
  3  62  44   -199.86261
  3  80  32   -199.86261
  3  89  20   -199.86261
  3  104  38   -199.86261
END PERIOD

BEGIN PERIOD 14
  3  29  50   -197.55423
  3  35  41   -197.55423
  3  62  44   -197.55423
  3  80  32   -197.55423
  3  89  20   -197.55423
  3  104  38   -197.55423
END PERIOD

BEGIN PERIOD 15
  3  29  50   -195.23170
  3  35  41   -195.23170
  3  62  44   -195.23170
  3  80  32   -195.23170
  3  89  20   -195.23170
  3  104  38   -195.23170
END PERIOD

BEGIN PERIOD 16
  3  29  50   -192.89572
  3  35  41   -192.89572
  3  62  44   -192.89572
  3  80  32   -192.89572
  3  89  20   -192.89572
  3  104  38   -192.89572
END PERIOD

BEGIN PERIOD 17
  3  29  50   -190.54701
  3  35  41   -190.54701
  3  62  44   -190.54701
  3  80  32   -190.54701
  3  89  20   -190.54701
  3  104  38   -190.54701
END PERIOD

BEGIN PERIOD 18
  3  29  50   -188.18625
  3  35  41   -188.18625
  3  62  44   -188.18625
  3  80  32   -188.18625
  3  89  20   -188.18625
  3  104  38   -188.18625
END PERIOD

BEGIN PERIOD 19
  3  29  50   -185.81415
  3  35  41   -185.81415
  3  62  44   -185.81415
  3  80  32   -185.81415
  3  89  20   -185.81415
  3  104  38   -185.81415
END PERIOD

BEGIN PERIOD 20
  3  29  50   -183.43140
  3  35  41   -183.43140
  3  62  44   -183.43140
  3  80  32   -183.43140
  3  89  20   -183.43140
  3  104  38   -183.43140
END PERIOD

BEGIN PERIOD 21
  3  29  50   -181.03873
  3  35  41   -181.03873
  3  62  44   -181.03873
  3  80  32   -181.03873
  3  89  20   -181.03873
  3  104  38   -181.03873
END PERIOD

BEGIN PERIOD 22
  3  29  50   -178.63683
  3  35  41   -178.63683
  3  62  44   -178.63683
  3  80  32   -178.63683
  3  89  20   -178.63683
  3  104  38   -178.63683
END PERIOD

BEGIN PERIOD 23
  3  29  50   -176.22641
  3  35  41   -176.22641
  3  62  44   -176.22641
  3  80  32   -176.22641
  3  89  20   -176.22641
  3  104  38   -176.22641
END PERIOD

BEGIN PERIOD 24
  3  29  50   -173.80820
  3  35  41   -173.80820
  3  62  44   -173.80820
  3  80  32   -173.80820
  3  89  20   -173.80820
  3  104  38   -173.80820
END PERIOD

BEGIN PERIOD 25
  3  29  50   -171.38290
  3  35  41   -171.38290
  3  62  44   -171.38290
  3  80  32   -171.38290
  3  89  20   -171.38290
  3  104  38   -171.38290
END PERIOD

BEGIN PERIOD 26
  3  29  50   -168.95130
  3  35  41   -168.95130
  3  62  44   -168.95130
  3  80  32   -168.95130
  3  89  20   -168.95130
  3  104  38   -168.95130
END PERIOD

BEGIN PERIOD 27
  3  29  50   -166.51402
  3  35  41   -166.51402
  3  62  44   -166.51402
  3  80  32   -166.51402
  3  89  20   -166.51402
  3  104  38   -166.51402
END PERIOD

BEGIN PERIOD 28
  3  29  50   -164.07185
  3  35  41   -164.07185
  3  62  44   -164.07185
  3  80  32   -164.07185
  3  89  20   -164.07185
  3  104  38   -164.07185
END PERIOD

BEGIN PERIOD 29
  3  29  50   -161.62550
  3  35  41   -161.62550
  3  62  44   -161.62550
  3  80  32   -161.62550
  3  89  20   -161.62550
  3  104  38   -161.62550
END PERIOD

BEGIN PERIOD 30
  3  29  50   -159.17569
  3  35  41   -159.17569
  3  62  44   -159.17569
  3  80  32   -159.17569
  3  89  20   -159.17569
  3  104  38   -159.17569
END PERIOD

BEGIN PERIOD 31
  3  29  50   -156.72316
  3  35  41   -156.72316
  3  62  44   -156.72316
  3  80  32   -156.72316
  3  89  20   -156.72316
  3  104  38   -156.72316
END PERIOD

BEGIN PERIOD 32
  3  29  50   -154.26863
  3  35  41   -154.26863
  3  62  44   -154.26863
  3  80  32   -154.26863
  3  89  20   -154.26863
  3  104  38   -154.26863
END PERIOD

BEGIN PERIOD 33
  3  29  50   -151.81282
  3  35  41   -151.81282
  3  62  44   -151.81282
  3  80  32   -151.81282
  3  89  20   -151.81282
  3  104  38   -151.81282
END PERIOD

BEGIN PERIOD 34
  3  29  50   -149.35649
  3  35  41   -149.35649
  3  62  44   -149.35649
  3  80  32   -149.35649
  3  89  20   -149.35649
  3  104  38   -149.35649
END PERIOD

BEGIN PERIOD 35
  3  29  50   -146.90034
  3  35  41   -146.90034
  3  62  44   -146.90034
  3  80  32   -146.90034
  3  89  20   -146.90034
  3  104  38   -146.90034
END PERIOD

BEGIN PERIOD 36
  3  29  50   -144.44511
  3  35  41   -144.44511
  3  62  44   -144.44511
  3  80  32   -144.44511
  3  89  20   -144.44511
  3  104  38   -144.44511
END PERIOD

BEGIN PERIOD 37
  3  29  50   -141.99155
  3  35  41   -141.99155
  3  62  44   -141.99155
  3  80  32   -141.99155
  3  89  20   -141.99155
  3  104  38   -141.99155
END PERIOD

BEGIN PERIOD 38
  3  29  50   -139.54034
  3  35  41   -139.54034
  3  62  44   -139.54034
  3  80  32   -139.54034
  3  89  20   -139.54034
  3  104  38   -139.54034
END PERIOD

BEGIN PERIOD 39
  3  29  50   -137.09225
  3  35  41   -137.09225
  3  62  44   -137.09225
  3  80  32   -137.09225
  3  89  20   -137.09225
  3  104  38   -137.09225
END PERIOD

BEGIN PERIOD 40
  3  29  50   -134.64800
  3  35  41   -134.64800
  3  62  44   -134.64800
  3  80  32   -134.64800
  3  89  20   -134.64800
  3  104  38   -134.64800
END PERIOD

BEGIN PERIOD 41
  3  29  50   -132.20831
  3  35  41   -132.20831
  3  62  44   -132.20831
  3  80  32   -132.20831
  3  89  20   -132.20831
  3  104  38   -132.20831
END PERIOD

BEGIN PERIOD 42
  3  29  50   -129.77391
  3  35  41   -129.77391
  3  62  44   -129.77391
  3  80  32   -129.77391
  3  89  20   -129.77391
  3  104  38   -129.77391
END PERIOD

BEGIN PERIOD 43
  3  29  50   -127.34551
  3  35  41   -127.34551
  3  62  44   -127.34551
  3  80  32   -127.34551
  3  89  20   -127.34551
  3  104  38   -127.34551
END PERIOD

BEGIN PERIOD 44
  3  29  50   -124.92385
  3  35  41   -124.92385
  3  62  44   -124.92385
  3  80  32   -124.92385
  3  89  20   -124.92385
  3  104  38   -124.92385
END PERIOD

BEGIN PERIOD 45
  3  29  50   -122.50964
  3  35  41   -122.50964
  3  62  44   -122.50964
  3  80  32   -122.50964
  3  89  20   -122.50964
  3  104  38   -122.50964
END PERIOD

BEGIN PERIOD 46
  3  29  50   -120.10359
  3  35  41   -120.10359
  3  62  44   -120.10359
  3  80  32   -120.10359
  3  89  20   -120.10359
  3  104  38   -120.10359
END PERIOD

BEGIN PERIOD 47
  3  29  50   -117.70643
  3  35  41   -117.70643
  3  62  44   -117.70643
  3  80  32   -117.70643
  3  89  20   -117.70643
  3  104  38   -117.70643
END PERIOD

BEGIN PERIOD 48
  3  29  50   -115.31887
  3  35  41   -115.31887
  3  62  44   -115.31887
  3  80  32   -115.31887
  3  89  20   -115.31887
  3  104  38   -115.31887
END PERIOD

BEGIN PERIOD 49
  3  29  50   -112.94160
  3  35  41   -112.94160
  3  62  44   -112.94160
  3  80  32   -112.94160
  3  89  20   -112.94160
  3  104  38   -112.94160
END PERIOD

BEGIN PERIOD 50
  3  29  50   -110.57536
  3  35  41   -110.57536
  3  62  44   -110.57536
  3  80  32   -110.57536
  3  89  20   -110.57536
  3  104  38   -110.57536
END PERIOD

BEGIN PERIOD 51
  3  29  50   -108.22083
  3  35  41   -108.22083
  3  62  44   -108.22083
  3  80  32   -108.22083
  3  89  20   -108.22083
  3  104  38   -108.22083
END PERIOD

BEGIN PERIOD 52
  3  29  50   -105.87871
  3  35  41   -105.87871
  3  62  44   -105.87871
  3  80  32   -105.87871
  3  89  20   -105.87871
  3  104  38   -105.87871
END PERIOD

BEGIN PERIOD 53
  3  29  50   -103.54969
  3  35  41   -103.54969
  3  62  44   -103.54969
  3  80  32   -103.54969
  3  89  20   -103.54969
  3  104  38   -103.54969
END PERIOD

BEGIN PERIOD 54
  3  29  50   -101.23449
  3  35  41   -101.23449
  3  62  44   -101.23449
  3  80  32   -101.23449
  3  89  20   -101.23449
  3  104  38   -101.23449
END PERIOD

BEGIN PERIOD 55
  3  29  50   -98.933770
  3  35  41   -98.933770
  3  62  44   -98.933770
  3  80  32   -98.933770
  3  89  20   -98.933770
  3  104  38   -98.933770
END PERIOD

BEGIN PERIOD 56
  3  29  50   -96.648224
  3  35  41   -96.648224
  3  62  44   -96.648224
  3  80  32   -96.648224
  3  89  20   -96.648224
  3  104  38   -96.648224
END PERIOD

BEGIN PERIOD 57
  3  29  50   -94.378530
  3  35  41   -94.378530
  3  62  44   -94.378530
  3  80  32   -94.378530
  3  89  20   -94.378530
  3  104  38   -94.378530
END PERIOD

BEGIN PERIOD 58
  3  29  50   -92.125370
  3  35  41   -92.125370
  3  62  44   -92.125370
  3  80  32   -92.125370
  3  89  20   -92.125370
  3  104  38   -92.125370
END PERIOD

BEGIN PERIOD 59
  3  29  50   -89.889400
  3  35  41   -89.889400
  3  62  44   -89.889400
  3  80  32   -89.889400
  3  89  20   -89.889400
  3  104  38   -89.889400
END PERIOD

BEGIN PERIOD 60
  3  29  50   -87.671295
  3  35  41   -87.671295
  3  62  44   -87.671295
  3  80  32   -87.671295
  3  89  20   -87.671295
  3  104  38   -87.671295
END PERIOD

BEGIN PERIOD 61
  3  29  50   -85.471700
  3  35  41   -85.471700
  3  62  44   -85.471700
  3  80  32   -85.471700
  3  89  20   -85.471700
  3  104  38   -85.471700
END PERIOD

BEGIN PERIOD 62
  3  29  50   -83.291290
  3  35  41   -83.291290
  3  62  44   -83.291290
  3  80  32   -83.291290
  3  89  20   -83.291290
  3  104  38   -83.291290
END PERIOD

BEGIN PERIOD 63
  3  29  50   -81.130700
  3  35  41   -81.130700
  3  62  44   -81.130700
  3  80  32   -81.130700
  3  89  20   -81.130700
  3  104  38   -81.130700
END PERIOD

BEGIN PERIOD 64
  3  29  50   -78.990570
  3  35  41   -78.990570
  3  62  44   -78.990570
  3  80  32   -78.990570
  3  89  20   -78.990570
  3  104  38   -78.990570
END PERIOD

BEGIN PERIOD 65
  3  29  50   -76.871540
  3  35  41   -76.871540
  3  62  44   -76.871540
  3  80  32   -76.871540
  3  89  20   -76.871540
  3  104  38   -76.871540
END PERIOD

BEGIN PERIOD 66
  3  29  50   -74.774240
  3  35  41   -74.774240
  3  62  44   -74.774240
  3  80  32   -74.774240
  3  89  20   -74.774240
  3  104  38   -74.774240
END PERIOD

BEGIN PERIOD 67
  3  29  50   -72.699290
  3  35  41   -72.699290
  3  62  44   -72.699290
  3  80  32   -72.699290
  3  89  20   -72.699290
  3  104  38   -72.699290
END PERIOD

BEGIN PERIOD 68
  3  29  50   -70.647310
  3  35  41   -70.647310
  3  62  44   -70.647310
  3  80  32   -70.647310
  3  89  20   -70.647310
  3  104  38   -70.647310
END PERIOD

BEGIN PERIOD 69
  3  29  50   -68.618910
  3  35  41   -68.618910
  3  62  44   -68.618910
  3  80  32   -68.618910
  3  89  20   -68.618910
  3  104  38   -68.618910
END PERIOD

BEGIN PERIOD 70
  3  29  50   -66.614690
  3  35  41   -66.614690
  3  62  44   -66.614690
  3  80  32   -66.614690
  3  89  20   -66.614690
  3  104  38   -66.614690
END PERIOD

BEGIN PERIOD 71
  3  29  50   -64.635250
  3  35  41   -64.635250
  3  62  44   -64.635250
  3  80  32   -64.635250
  3  89  20   -64.635250
  3  104  38   -64.635250
END PERIOD

BEGIN PERIOD 72
  3  29  50   -62.681170
  3  35  41   -62.681170
  3  62  44   -62.681170
  3  80  32   -62.681170
  3  89  20   -62.681170
  3  104  38   -62.681170
END PERIOD

BEGIN PERIOD 73
  3  29  50   -60.753040
  3  35  41   -60.753040
  3  62  44   -60.753040
  3  80  32   -60.753040
  3  89  20   -60.753040
  3  104  38   -60.753040
END PERIOD

BEGIN PERIOD 74
  3  29  50   -58.851425
  3  35  41   -58.851425
  3  62  44   -58.851425
  3  80  32   -58.851425
  3  89  20   -58.851425
  3  104  38   -58.851425
END PERIOD

BEGIN PERIOD 75
  3  29  50   -56.976890
  3  35  41   -56.976890
  3  62  44   -56.976890
  3  80  32   -56.976890
  3  89  20   -56.976890
  3  104  38   -56.976890
END PERIOD

BEGIN PERIOD 76
  3  29  50   -55.130005
  3  35  41   -55.130005
  3  62  44   -55.130005
  3  80  32   -55.130005
  3  89  20   -55.130005
  3  104  38   -55.130005
END PERIOD

BEGIN PERIOD 77
  3  29  50   -53.311306
  3  35  41   -53.311306
  3  62  44   -53.311306
  3  80  32   -53.311306
  3  89  20   -53.311306
  3  104  38   -53.311306
END PERIOD

BEGIN PERIOD 78
  3  29  50   -51.521330
  3  35  41   -51.521330
  3  62  44   -51.521330
  3  80  32   -51.521330
  3  89  20   -51.521330
  3  104  38   -51.521330
END PERIOD

BEGIN PERIOD 79
  3  29  50   -49.760624
  3  35  41   -49.760624
  3  62  44   -49.760624
  3  80  32   -49.760624
  3  89  20   -49.760624
  3  104  38   -49.760624
END PERIOD

BEGIN PERIOD 80
  3  29  50   -48.029694
  3  35  41   -48.029694
  3  62  44   -48.029694
  3  80  32   -48.029694
  3  89  20   -48.029694
  3  104  38   -48.029694
END PERIOD

BEGIN PERIOD 81
  3  29  50   -46.329067
  3  35  41   -46.329067
  3  62  44   -46.329067
  3  80  32   -46.329067
  3  89  20   -46.329067
  3  104  38   -46.329067
END PERIOD

BEGIN PERIOD 82
  3  29  50   -44.659245
  3  35  41   -44.659245
  3  62  44   -44.659245
  3  80  32   -44.659245
  3  89  20   -44.659245
  3  104  38   -44.659245
END PERIOD

BEGIN PERIOD 83
  3  29  50   -43.020725
  3  35  41   -43.020725
  3  62  44   -43.020725
  3  80  32   -43.020725
  3  89  20   -43.020725
  3  104  38   -43.020725
END PERIOD

BEGIN PERIOD 84
  3  29  50   -41.413990
  3  35  41   -41.413990
  3  62  44   -41.413990
  3  80  32   -41.413990
  3  89  20   -41.413990
  3  104  38   -41.413990
END PERIOD

BEGIN PERIOD 85
  3  29  50   -39.839520
  3  35  41   -39.839520
  3  62  44   -39.839520
  3  80  32   -39.839520
  3  89  20   -39.839520
  3  104  38   -39.839520
END PERIOD

BEGIN PERIOD 86
  3  29  50   -38.297783
  3  35  41   -38.297783
  3  62  44   -38.297783
  3  80  32   -38.297783
  3  89  20   -38.297783
  3  104  38   -38.297783
END PERIOD

BEGIN PERIOD 87
  3  29  50   -36.789238
  3  35  41   -36.789238
  3  62  44   -36.789238
  3  80  32   -36.789238
  3  89  20   -36.789238
  3  104  38   -36.789238
END PERIOD

BEGIN PERIOD 88
  3  29  50   -35.314330
  3  35  41   -35.314330
  3  62  44   -35.314330
  3  80  32   -35.314330
  3  89  20   -35.314330
  3  104  38   -35.314330
END PERIOD

BEGIN PERIOD 89
  3  29  50   -33.873500
  3  35  41   -33.873500
  3  62  44   -33.873500
  3  80  32   -33.873500
  3  89  20   -33.873500
  3  104  38   -33.873500
END PERIOD

BEGIN PERIOD 90
  3  29  50   -32.467175
  3  35  41   -32.467175
  3  62  44   -32.467175
  3  80  32   -32.467175
  3  89  20   -32.467175
  3  104  38   -32.467175
END PERIOD

BEGIN PERIOD 91
  3  29  50   -31.095772
  3  35  41   -31.095772
  3  62  44   -31.095772
  3  80  32   -31.095772
  3  89  20   -31.095772
  3  104  38   -31.095772
END PERIOD

BEGIN PERIOD 92
  3  29  50   -29.759700
  3  35  41   -29.759700
  3  62  44   -29.759700
  3  80  32   -29.759700
  3  89  20   -29.759700
  3  104  38   -29.759700
END PERIOD

BEGIN PERIOD 93
  3  29  50   -28.459358
  3  35  41   -28.459358
  3  62  44   -28.459358
  3  80  32   -28.459358
  3  89  20   -28.459358
  3  104  38   -28.459358
END PERIOD

BEGIN PERIOD 94
  3  29  50   -27.195127
  3  35  41   -27.195127
  3  62  44   -27.195127
  3  80  32   -27.195127
  3  89  20   -27.195127
  3  104  38   -27.195127
END PERIOD

BEGIN PERIOD 95
  3  29  50   -25.967386
  3  35  41   -25.967386
  3  62  44   -25.967386
  3  80  32   -25.967386
  3  89  20   -25.967386
  3  104  38   -25.967386
END PERIOD

BEGIN PERIOD 96
  3  29  50   -24.776500
  3  35  41   -24.776500
  3  62  44   -24.776500
  3  80  32   -24.776500
  3  89  20   -24.776500
  3  104  38   -24.776500
END PERIOD

BEGIN PERIOD 97
  3  29  50   -23.622822
  3  35  41   -23.622822
  3  62  44   -23.622822
  3  80  32   -23.622822
  3  89  20   -23.622822
  3  104  38   -23.622822
END PERIOD

BEGIN PERIOD 98
  3  29  50   -22.506697
  3  35  41   -22.506697
  3  62  44   -22.506697
  3  80  32   -22.506697
  3  89  20   -22.506697
  3  104  38   -22.506697
END PERIOD

BEGIN PERIOD 99
  3  29  50   -21.428453
  3  35  41   -21.428453
  3  62  44   -21.428453
  3  80  32   -21.428453
  3  89  20   -21.428453
  3  104  38   -21.428453
END PERIOD

BEGIN PERIOD 100
  3  29  50   -20.388414
  3  35  41   -20.388414
  3  62  44   -20.388414
  3  80  32   -20.388414
  3  89  20   -20.388414
  3  104  38   -20.388414
END PERIOD

BEGIN PERIOD 101
  3  29  50   -19.386885
  3  35  41   -19.386885
  3  62  44   -19.386885
  3  80  32   -19.386885
  3  89  20   -19.386885
  3  104  38   -19.386885
END PERIOD

BEGIN PERIOD 102
  3  29  50   -18.424166
  3  35  41   -18.424166
  3  62  44   -18.424166
  3  80  32   -18.424166
  3  89  20   -18.424166
  3  104  38   -18.424166
END PERIOD

BEGIN PERIOD 103
  3  29  50   -17.500544
  3  35  41   -17.500544
  3  62  44   -17.500544
  3  80  32   -17.500544
  3  89  20   -17.500544
  3  104  38   -17.500544
END PERIOD

BEGIN PERIOD 104
  3  29  50   -16.616291
  3  35  41   -16.616291
  3  62  44   -16.616291
  3  80  32   -16.616291
  3  89  20   -16.616291
  3  104  38   -16.616291
END PERIOD

BEGIN PERIOD 105
  3  29  50   -15.771670
  3  35  41   -15.771670
  3  62  44   -15.771670
  3  80  32   -15.771670
  3  89  20   -15.771670
  3  104  38   -15.771670
END PERIOD

BEGIN PERIOD 106
  3  29  50   -14.966935
  3  35  41   -14.966935
  3  62  44   -14.966935
  3  80  32   -14.966935
  3  89  20   -14.966935
  3  104  38   -14.966935
END PERIOD

BEGIN PERIOD 107
  3  29  50   -14.202322
  3  35  41   -14.202322
  3  62  44   -14.202322
  3  80  32   -14.202322
  3  89  20   -14.202322
  3  104  38   -14.202322
END PERIOD

BEGIN PERIOD 108
  3  29  50   -13.478060
  3  35  41   -13.478060
  3  62  44   -13.478060
  3  80  32   -13.478060
  3  89  20   -13.478060
  3  104  38   -13.478060
END PERIOD

BEGIN PERIOD 109
  3  29  50   -12.794363
  3  35  41   -12.794363
  3  62  44   -12.794363
  3  80  32   -12.794363
  3  89  20   -12.794363
  3  104  38   -12.794363
END PERIOD

BEGIN PERIOD 110
  3  29  50   -12.151434
  3  35  41   -12.151434
  3  62  44   -12.151434
  3  80  32   -12.151434
  3  89  20   -12.151434
  3  104  38   -12.151434
END PERIOD

BEGIN PERIOD 111
  3  29  50   -11.549466
  3  35  41   -11.549466
  3  62  44   -11.549466
  3  80  32   -11.549466
  3  89  20   -11.549466
  3  104  38   -11.549466
END PERIOD

BEGIN PERIOD 112
  3  29  50   -10.988636
  3  35  41   -10.988636
  3  62  44   -10.988636
  3  80  32   -10.988636
  3  89  20   -10.988636
  3  104  38   -10.988636
END PERIOD

BEGIN PERIOD 113
  3  29  50   -10.469110
  3  35  41   -10.469110
  3  62  44   -10.469110
  3  80  32   -10.469110
  3  89  20   -10.469110
  3  104  38   -10.469110
END PERIOD

BEGIN PERIOD 114
  3  29  50   -9.9910450
  3  35  41   -9.9910450
  3  62  44   -9.9910450
  3  80  32   -9.9910450
  3  89  20   -9.9910450
  3  104  38   -9.9910450
END PERIOD

BEGIN PERIOD 115
  3  29  50   -9.5545810
  3  35  41   -9.5545810
  3  62  44   -9.5545810
  3  80  32   -9.5545810
  3  89  20   -9.5545810
  3  104  38   -9.5545810
END PERIOD

BEGIN PERIOD 116
  3  29  50   -9.1598480
  3  35  41   -9.1598480
  3  62  44   -9.1598480
  3  80  32   -9.1598480
  3  89  20   -9.1598480
  3  104  38   -9.1598480
END PERIOD

BEGIN PERIOD 117
  3  29  50   -8.8069640
  3  35  41   -8.8069640
  3  62  44   -8.8069640
  3  80  32   -8.8069640
  3  89  20   -8.8069640
  3  104  38   -8.8069640
END PERIOD

BEGIN PERIOD 118
  3  29  50   -8.4960340
  3  35  41   -8.4960340
  3  62  44   -8.4960340
  3  80  32   -8.4960340
  3  89  20   -8.4960340
  3  104  38   -8.4960340
END PERIOD

BEGIN PERIOD 119
  3  29  50   -8.2271490
  3  35  41   -8.2271490
  3  62  44   -8.2271490
  3  80  32   -8.2271490
  3  89  20   -8.2271490
  3  104  38   -8.2271490
END PERIOD

BEGIN PERIOD 120
  3  29  50   -8.0003890
  3  35  41   -8.0003890
  3  62  44   -8.0003890
  3  80  32   -8.0003890
  3  89  20   -8.0003890
  3  104  38   -8.0003890
END PERIOD

BEGIN PERIOD 121
  3  29  50   -7.8158230
  3  35  41   -7.8158230
  3  62  44   -7.8158230
  3  80  32   -7.8158230
  3  89  20   -7.8158230
  3  104  38   -7.8158230
END PERIOD

BEGIN PERIOD 122
  3  29  50   -7.6735044
  3  35  41   -7.6735044
  3  62  44   -7.6735044
  3  80  32   -7.6735044
  3  89  20   -7.6735044
  3  104  38   -7.6735044
END PERIOD

BEGIN PERIOD 123
  3  29  50   -7.5734763
  3  35  41   -7.5734763
  3  62  44   -7.5734763
  3  80  32   -7.5734763
  3  89  20   -7.5734763
  3  104  38   -7.5734763
END PERIOD

BEGIN PERIOD 124
  3  29  50   -7.5157680
  3  35  41   -7.5157680
  3  62  44   -7.5157680
  3  80  32   -7.5157680
  3  89  20   -7.5157680
  3  104  38   -7.5157680
END PERIOD

BEGIN PERIOD 125
  3  29  50   -7.5003970
  3  35  41   -7.5003970
  3  62  44   -7.5003970
  3  80  32   -7.5003970
  3  89  20   -7.5003970
  3  104  38   -7.5003970
END PERIOD

BEGIN PERIOD 126
  3  29  50   -7.5273676
  3  35  41   -7.5273676
  3  62  44   -7.5273676
  3  80  32   -7.5273676
  3  89  20   -7.5273676
  3  104  38   -7.5273676
END PERIOD

BEGIN PERIOD 127
  3  29  50   -7.5966720
  3  35  41   -7.5966720
  3  62  44   -7.5966720
  3  80  32   -7.5966720
  3  89  20   -7.5966720
  3  104  38   -7.5966720
END PERIOD

BEGIN PERIOD 128
  3  29  50   -7.7082887
  3  35  41   -7.7082887
  3  62  44   -7.7082887
  3  80  32   -7.7082887
  3  89  20   -7.7082887
  3  104  38   -7.7082887
END PERIOD

BEGIN PERIOD 129
  3  29  50   -7.8621860
  3  35  41   -7.8621860
  3  62  44   -7.8621860
  3  80  32   -7.8621860
  3  89  20   -7.8621860
  3  104  38   -7.8621860
END PERIOD

BEGIN PERIOD 130
  3  29  50   -8.0583170
  3  35  41   -8.0583170
  3  62  44   -8.0583170
  3  80  32   -8.0583170
  3  89  20   -8.0583170
  3  104  38   -8.0583170
END PERIOD

BEGIN PERIOD 131
  3  29  50   -8.2966240
  3  35  41   -8.2966240
  3  62  44   -8.2966240
  3  80  32   -8.2966240
  3  89  20   -8.2966240
  3  104  38   -8.2966240
END PERIOD

BEGIN PERIOD 132
  3  29  50   -8.5770360
  3  35  41   -8.5770360
  3  62  44   -8.5770360
  3  80  32   -8.5770360
  3  89  20   -8.5770360
  3  104  38   -8.5770360
END PERIOD

BEGIN PERIOD 133
  3  29  50   -8.8994700
  3  35  41   -8.8994700
  3  62  44   -8.8994700
  3  80  32   -8.8994700
  3  89  20   -8.8994700
  3  104  38   -8.8994700
END PERIOD

BEGIN PERIOD 134
  3  29  50   -9.2638290
  3  35  41   -9.2638290
  3  62  44   -9.2638290
  3  80  32   -9.2638290
  3  89  20   -9.2638290
  3  104  38   -9.2638290
END PERIOD

BEGIN PERIOD 135
  3  29  50   -9.6700080
  3  35  41   -9.6700080
  3  62  44   -9.6700080
  3  80  32   -9.6700080
  3  89  20   -9.6700080
  3  104  38   -9.6700080
END PERIOD

BEGIN PERIOD 136
  3  29  50   -10.117882
  3  35  41   -10.117882
  3  62  44   -10.117882
  3  80  32   -10.117882
  3  89  20   -10.117882
  3  104  38   -10.117882
END PERIOD

BEGIN PERIOD 137
  3  29  50   -10.607320
  3  35  41   -10.607320
  3  62  44   -10.607320
  3  80  32   -10.607320
  3  89  20   -10.607320
  3  104  38   -10.607320
END PERIOD

BEGIN PERIOD 138
  3  29  50   -11.138176
  3  35  41   -11.138176
  3  62  44   -11.138176
  3  80  32   -11.138176
  3  89  20   -11.138176
  3  104  38   -11.138176
END PERIOD

BEGIN PERIOD 139
  3  29  50   -11.710293
  3  35  41   -11.710293
  3  62  44   -11.710293
  3  80  32   -11.710293
  3  89  20   -11.710293
  3  104  38   -11.710293
END PERIOD

BEGIN PERIOD 140
  3  29  50   -12.323501
  3  35  41   -12.323501
  3  62  44   -12.323501
  3  80  32   -12.323501
  3  89  20   -12.323501
  3  104  38   -12.323501
END PERIOD

BEGIN PERIOD 141
  3  29  50   -12.977618
  3  35  41   -12.977618
  3  62  44   -12.977618
  3  80  32   -12.977618
  3  89  20   -12.977618
  3  104  38   -12.977618
END PERIOD

BEGIN PERIOD 142
  3  29  50   -13.672449
  3  35  41   -13.672449
  3  62  44   -13.672449
  3  80  32   -13.672449
  3  89  20   -13.672449
  3  104  38   -13.672449
END PERIOD

BEGIN PERIOD 143
  3  29  50   -14.407787
  3  35  41   -14.407787
  3  62  44   -14.407787
  3  80  32   -14.407787
  3  89  20   -14.407787
  3  104  38   -14.407787
END PERIOD

BEGIN PERIOD 144
  3  29  50   -15.183414
  3  35  41   -15.183414
  3  62  44   -15.183414
  3  80  32   -15.183414
  3  89  20   -15.183414
  3  104  38   -15.183414
END PERIOD

BEGIN PERIOD 145
  3  29  50   -15.999101
  3  35  41   -15.999101
  3  62  44   -15.999101
  3  80  32   -15.999101
  3  89  20   -15.999101
  3  104  38   -15.999101
END PERIOD

BEGIN PERIOD 146
  3  29  50   -16.854603
  3  35  41   -16.854603
  3  62  44   -16.854603
  3  80  32   -16.854603
  3  89  20   -16.854603
  3  104  38   -16.854603
END PERIOD

BEGIN PERIOD 147
  3  29  50   -17.749668
  3  35  41   -17.749668
  3  62  44   -17.749668
  3  80  32   -17.749668
  3  89  20   -17.749668
  3  104  38   -17.749668
END PERIOD

BEGIN PERIOD 148
  3  29  50   -18.684030
  3  35  41   -18.684030
  3  62  44   -18.684030
  3  80  32   -18.684030
  3  89  20   -18.684030
  3  104  38   -18.684030
END PERIOD

BEGIN PERIOD 149
  3  29  50   -19.657410
  3  35  41   -19.657410
  3  62  44   -19.657410
  3  80  32   -19.657410
  3  89  20   -19.657410
  3  104  38   -19.657410
END PERIOD

BEGIN PERIOD 150
  3  29  50   -20.669518
  3  35  41   -20.669518
  3  62  44   -20.669518
  3  80  32   -20.669518
  3  89  20   -20.669518
  3  104  38   -20.669518
END PERIOD

BEGIN PERIOD 151
  3  29  50   -21.720057
  3  35  41   -21.720057
  3  62  44   -21.720057
  3  80  32   -21.720057
  3  89  20   -21.720057
  3  104  38   -21.720057
END PERIOD

BEGIN PERIOD 152
  3  29  50   -22.808710
  3  35  41   -22.808710
  3  62  44   -22.808710
  3  80  32   -22.808710
  3  89  20   -22.808710
  3  104  38   -22.808710
END PERIOD

BEGIN PERIOD 153
  3  29  50   -23.935158
  3  35  41   -23.935158
  3  62  44   -23.935158
  3  80  32   -23.935158
  3  89  20   -23.935158
  3  104  38   -23.935158
END PERIOD

BEGIN PERIOD 154
  3  29  50   -25.099064
  3  35  41   -25.099064
  3  62  44   -25.099064
  3  80  32   -25.099064
  3  89  20   -25.099064
  3  104  38   -25.099064
END PERIOD

BEGIN PERIOD 155
  3  29  50   -26.300081
  3  35  41   -26.300081
  3  62  44   -26.300081
  3  80  32   -26.300081
  3  89  20   -26.300081
  3  104  38   -26.300081
END PERIOD

BEGIN PERIOD 156
  3  29  50   -27.537853
  3  35  41   -27.537853
  3  62  44   -27.537853
  3  80  32   -27.537853
  3  89  20   -27.537853
  3  104  38   -27.537853
END PERIOD

BEGIN PERIOD 157
  3  29  50   -28.812014
  3  35  41   -28.812014
  3  62  44   -28.812014
  3  80  32   -28.812014
  3  89  20   -28.812014
  3  104  38   -28.812014
END PERIOD

BEGIN PERIOD 158
  3  29  50   -30.122187
  3  35  41   -30.122187
  3  62  44   -30.122187
  3  80  32   -30.122187
  3  89  20   -30.122187
  3  104  38   -30.122187
END PERIOD

BEGIN PERIOD 159
  3  29  50   -31.467976
  3  35  41   -31.467976
  3  62  44   -31.467976
  3  80  32   -31.467976
  3  89  20   -31.467976
  3  104  38   -31.467976
END PERIOD

BEGIN PERIOD 160
  3  29  50   -32.848988
  3  35  41   -32.848988
  3  62  44   -32.848988
  3  80  32   -32.848988
  3  89  20   -32.848988
  3  104  38   -32.848988
END PERIOD

BEGIN PERIOD 161
  3  29  50   -34.264805
  3  35  41   -34.264805
  3  62  44   -34.264805
  3  80  32   -34.264805
  3  89  20   -34.264805
  3  104  38   -34.264805
END PERIOD

BEGIN PERIOD 162
  3  29  50   -35.715015
  3  35  41   -35.715015
  3  62  44   -35.715015
  3  80  32   -35.715015
  3  89  20   -35.715015
  3  104  38   -35.715015
END PERIOD

BEGIN PERIOD 163
  3  29  50   -37.199184
  3  35  41   -37.199184
  3  62  44   -37.199184
  3  80  32   -37.199184
  3  89  20   -37.199184
  3  104  38   -37.199184
END PERIOD

BEGIN PERIOD 164
  3  29  50   -38.716870
  3  35  41   -38.716870
  3  62  44   -38.716870
  3  80  32   -38.716870
  3  89  20   -38.716870
  3  104  38   -38.716870
END PERIOD

BEGIN PERIOD 165
  3  29  50   -40.267616
  3  35  41   -40.267616
  3  62  44   -40.267616
  3  80  32   -40.267616
  3  89  20   -40.267616
  3  104  38   -40.267616
END PERIOD

BEGIN PERIOD 166
  3  29  50   -41.850970
  3  35  41   -41.850970
  3  62  44   -41.850970
  3  80  32   -41.850970
  3  89  20   -41.850970
  3  104  38   -41.850970
END PERIOD

BEGIN PERIOD 167
  3  29  50   -43.466460