# WEL6 input file, prepared by MF5to6 on 6/30/2020 at 9:41:13.

BEGIN Options
  PRINT_INPUT
  PRINT_FLOWS
  SAVE_FLOWS
END Options

BEGIN Dimensions
  MAXBOUND  6
END Dimensions

BEGIN PERIOD 1
  3  29  50   -150.00000
  3  35  41   -150.00000
  3  62  44   -150.00000
  3  80  32   -150.00000
  3  89  20   -150.00000
  3  104  38   -150.00000
END PERIOD

BEGIN PERIOD 2
  3  29  50   -150.13380
  3  35  41   -150.13380
  3  62  44   -150.13380
  3  80  32   -150.13380
  3  89  20   -150.13380
  3  104  38   -150.13380
END PERIOD

BEGIN PERIOD 3
  3  29  50   -150.01881
  3  35  41   -150.01881
  3  62  44   -150.01881
  3  80  32   -150.01881
  3  89  20   -150.01881
  3  104  38   -150.01881
END PERIOD

BEGIN PERIOD 4
  3  29  50   -150.08502
  3  35  41   -150.08502
  3  62  44   -150.08502
  3  80  32   -150.08502
  3  89  20   -150.08502
  3  104  38   -150.08502
END PERIOD

BEGIN PERIOD 5
  3  29  50   -150.00319
  3  35  41   -150.00319
  3  62  44   -150.00319
  3  80  32   -150.00319
  3  89  20   -150.00319
  3  104  38   -150.00319
END PERIOD

BEGIN PERIOD 6
  3  29  50   -150.07940
  3  35  41   -150.07940
  3  62  44   -150.07940
  3  80  32   -150.07940
  3  89  20   -150.07940
  3  104  38   -150.07940
END PERIOD

BEGIN PERIOD 7
  3  29  50   -150.12138
  3  35  41   -150.12138
  3  62  44   -150.12138
  3  80  32   -150.12138
  3  89  20   -150.12138
  3  104  38   -150.12138
END PERIOD

BEGIN PERIOD 8
  3  29  50   -150.11820
  3  35  41   -150.11820
  3  62  44   -150.11820
  3  80  32   -150.11820
  3  89  20   -150.11820
  3  104  38   -150.11820
END PERIOD

BEGIN PERIOD 9
  3  29  50   -150.10469
  3  35  41   -150.10469
  3  62  44   -150.10469
  3  80  32   -150.10469
  3  89  20   -150.10469
  3  104  38   -150.10469
END PERIOD

BEGIN PERIOD 10
  3  29  50   -150.11670
  3  35  41   -150.11670
  3  62  44   -150.11670
  3  80  32   -150.11670
  3  89  20   -150.11670
  3  104  38   -150.11670
END PERIOD

BEGIN PERIOD 11
  3  29  50   -150.12578
  3  35  41   -150.12578
  3  62  44   -150.12578
  3  80  32   -150.12578
  3  89  20   -150.12578
  3  104  38   -150.12578
END PERIOD

BEGIN PERIOD 12
  3  29  50   -150.08556
  3  35  41   -150.08556
  3  62  44   -150.08556
  3  80  32   -150.08556
  3  89  20   -150.08556
  3  104  38   -150.08556
END PERIOD

BEGIN PERIOD 13
  3  29  50   -150.02632
  3  35  41   -150.02632
  3  62  44   -150.02632
  3  80  32   -150.02632
  3  89  20   -150.02632
  3  104  38   -150.02632
END PERIOD

BEGIN PERIOD 14
  3  29  50   -150.02536
  3  35  41   -150.02536
  3  62  44   -150.02536
  3  80  32   -150.02536
  3  89  20   -150.02536
  3  104  38   -150.02536
END PERIOD

BEGIN PERIOD 15
  3  29  50   -150.06912
  3  35  41   -150.06912
  3  62  44   -150.06912
  3  80  32   -150.06912
  3  89  20   -150.06912
  3  104  38   -150.06912
END PERIOD

BEGIN PERIOD 16
  3  29  50   -150.14038
  3  35  41   -150.14038
  3  62  44   -150.14038
  3  80  32   -150.14038
  3  89  20   -150.14038
  3  104  38   -150.14038
END PERIOD

BEGIN PERIOD 17
  3  29  50   -150.06918
  3  35  41   -150.06918
  3  62  44   -150.06918
  3  80  32   -150.06918
  3  89  20   -150.06918
  3  104  38   -150.06918
END PERIOD

BEGIN PERIOD 18
  3  29  50   -150.13493
  3  35  41   -150.13493
  3  62  44   -150.13493
  3  80  32   -150.13493
  3  89  20   -150.13493
  3  104  38   -150.13493
END PERIOD

BEGIN PERIOD 19
  3  29  50   -150.05463
  3  35  41   -150.05463
  3  62  44   -150.05463
  3  80  32   -150.05463
  3  89  20   -150.05463
  3  104  38   -150.05463
END PERIOD

BEGIN PERIOD 20
  3  29  50   -150.01245
  3  35  41   -150.01245
  3  62  44   -150.01245
  3  80  32   -150.01245
  3  89  20   -150.01245
  3  104  38   -150.01245
END PERIOD

BEGIN PERIOD 21
  3  29  50   -150.02550
  3  35  41   -150.02550
  3  62  44   -150.02550
  3  80  32   -150.02550
  3  89  20   -150.02550
  3  104  38   -150.02550
END PERIOD

BEGIN PERIOD 22
  3  29  50   -150.03174
  3  35  41   -150.03174
  3  62  44   -150.03174
  3  80  32   -150.03174
  3  89  20   -150.03174
  3  104  38   -150.03174
END PERIOD

BEGIN PERIOD 23
  3  29  50   -150.12747
  3  35  41   -150.12747
  3  62  44   -150.12747
  3  80  32   -150.12747
  3  89  20   -150.12747
  3  104  38   -150.12747
END PERIOD

BEGIN PERIOD 24
  3  29  50   -150.02713
  3  35  41   -150.02713
  3  62  44   -150.02713
  3  80  32   -150.02713
  3  89  20   -150.02713
  3  104  38   -150.02713
END PERIOD

BEGIN PERIOD 25
  3  29  50   -150.02878
  3  35  41   -150.02878
  3  62  44   -150.02878
  3  80  32   -150.02878
  3  89  20   -150.02878
  3  104  38   -150.02878
END PERIOD

BEGIN PERIOD 26
  3  29  50   -150.07051
  3  35  41   -150.07051
  3  62  44   -150.07051
  3  80  32   -150.07051
  3  89  20   -150.07051
  3  104  38   -150.07051
END PERIOD

BEGIN PERIOD 27
  3  29  50   -150.00170
  3  35  41   -150.00170
  3  62  44   -150.00170
  3  80  32   -150.00170
  3  89  20   -150.00170
  3  104  38   -150.00170
END PERIOD

BEGIN PERIOD 28
  3  29  50   -150.11494
  3  35  41   -150.11494
  3  62  44   -150.11494
  3  80  32   -150.11494
  3  89  20   -150.11494
  3  104  38   -150.11494
END PERIOD

BEGIN PERIOD 29
  3  29  50   -150.08344
  3  35  41   -150.08344
  3  62  44   -150.08344
  3  80  32   -150.08344
  3  89  20   -150.08344
  3  104  38   -150.08344
END PERIOD

BEGIN PERIOD 30
  3  29  50   -150.00354
  3  35  41   -150.00354
  3  62  44   -150.00354
  3  80  32   -150.00354
  3  89  20   -150.00354
  3  104  38   -150.00354
END PERIOD

BEGIN PERIOD 31
  3  29  50   -150.03503
  3  35  41   -150.03503
  3  62  44   -150.03503
  3  80  32   -150.03503
  3  89  20   -150.03503
  3  104  38   -150.03503
END PERIOD

BEGIN PERIOD 32
  3  29  50   -150.02667
  3  35  41   -150.02667
  3  62  44   -150.02667
  3  80  32   -150.02667
  3  89  20   -150.02667
  3  104  38   -150.02667
END PERIOD

BEGIN PERIOD 33
  3  29  50   -150.05064
  3  35  41   -150.05064
  3  62  44   -150.05064
  3  80  32   -150.05064
  3  89  20   -150.05064
  3  104  38   -150.05064
END PERIOD

BEGIN PERIOD 34
  3  29  50   -150.04703
  3  35  41   -150.04703
  3  62  44   -150.04703
  3  80  32   -150.04703
  3  89  20   -150.04703
  3  104  38   -150.04703
END PERIOD

BEGIN PERIOD 35
  3  29  50   -150.05524
  3  35  41   -150.05524
  3  62  44   -150.05524
  3  80  32   -150.05524
  3  89  20   -150.05524
  3  104  38   -150.05524
END PERIOD

BEGIN PERIOD 36
  3  29  50   -150.14140
  3  35  41   -150.14140
  3  62  44   -150.14140
  3  80  32   -150.14140
  3  89  20   -150.14140
  3  104  38   -150.14140
END PERIOD

BEGIN PERIOD 37
  3  29  50   -150.08766
  3  35  41   -150.08766
  3  62  44   -150.08766
  3  80  32   -150.08766
  3  89  20   -150.08766
  3  104  38   -150.08766
END PERIOD

BEGIN PERIOD 38
  3  29  50   -150.07822
  3  35  41   -150.07822
  3  62  44   -150.07822
  3  80  32   -150.07822
  3  89  20   -150.07822
  3  104  38   -150.07822
END PERIOD

BEGIN PERIOD 39
  3  29  50   -150.02904
  3  35  41   -150.02904
  3  62  44   -150.02904
  3  80  32   -150.02904
  3  89  20   -150.02904
  3  104  38   -150.02904
END PERIOD

BEGIN PERIOD 40
  3  29  50   -150.02615
  3  35  41   -150.02615
  3  62  44   -150.02615
  3  80  32   -150.02615
  3  89  20   -150.02615
  3  104  38   -150.02615
END PERIOD

BEGIN PERIOD 41
  3  29  50   -150.12704
  3  35  41   -150.12704
  3  62  44   -150.12704
  3  80  32   -150.12704
  3  89  20   -150.12704
  3  104  38   -150.12704
END PERIOD

BEGIN PERIOD 42
  3  29  50   -150.11581
  3  35  41   -150.11581
  3  62  44   -150.11581
  3  80  32   -150.11581
  3  89  20   -150.11581
  3  104  38   -150.11581
END PERIOD

BEGIN PERIOD 43
  3  29  50   -150.03270
  3  35  41   -150.03270
  3  62  44   -150.03270
  3  80  32   -150.03270
  3  89  20   -150.03270
  3  104  38   -150.03270
END PERIOD

BEGIN PERIOD 44
  3  29  50   -150.02173
  3  35  41   -150.02173
  3  62  44   -150.02173
  3  80  32   -150.02173
  3  89  20   -150.02173
  3  104  38   -150.02173
END PERIOD

BEGIN PERIOD 45
  3  29  50   -150.11258
  3  35  41   -150.11258
  3  62  44   -150.11258
  3  80  32   -150.11258
  3  89  20   -150.11258
  3  104  38   -150.11258
END PERIOD

BEGIN PERIOD 46
  3  29  50   -150.00080
  3  35  41   -150.00080
  3  62  44   -150.00080
  3  80  32   -150.00080
  3  89  20   -150.00080
  3  104  38   -150.00080
END PERIOD

BEGIN PERIOD 47
  3  29  50   -150.03362
  3  35  41   -150.03362
  3  62  44   -150.03362
  3  80  32   -150.03362
  3  89  20   -150.03362
  3  104  38   -150.03362
END PERIOD

BEGIN PERIOD 48
  3  29  50   -150.11478
  3  35  41   -150.11478
  3  62  44   -150.11478
  3  80  32   -150.11478
  3  89  20   -150.11478
  3  104  38   -150.11478
END PERIOD

BEGIN PERIOD 49
  3  29  50   -150.06047
  3  35  41   -150.06047
  3  62  44   -150.06047
  3  80  32   -150.06047
  3  89  20   -150.06047
  3  104  38   -150.06047
END PERIOD

BEGIN PERIOD 50
  3  29  50   -150.12395
  3  35  41   -150.12395
  3  62  44   -150.12395
  3  80  32   -150.12395
  3  89  20   -150.12395
  3  104  38   -150.12395
END PERIOD

BEGIN PERIOD 51
  3  29  50   -150.01266
  3  35  41   -150.01266
  3  62  44   -150.01266
  3  80  32   -150.01266
  3  89  20   -150.01266
  3  104  38   -150.01266
END PERIOD

BEGIN PERIOD 52
  3  29  50   -150.05501
  3  35  41   -150.05501
  3  62  44   -150.05501
  3  80  32   -150.05501
  3  89  20   -150.05501
  3  104  38   -150.05501
END PERIOD

BEGIN PERIOD 53
  3  29  50   -150.09688
  3  35  41   -150.09688
  3  62  44   -150.09688
  3  80  32   -150.09688
  3  89  20   -150.09688
  3  104  38   -150.09688
END PERIOD

BEGIN PERIOD 54
  3  29  50   -150.00877
  3  35  41   -150.00877
  3  62  44   -150.00877
  3  80  32   -150.00877
  3  89  20   -150.00877
  3  104  38   -150.00877
END PERIOD

BEGIN PERIOD 55
  3  29  50   -150.09053
  3  35  41   -150.09053
  3  62  44   -150.09053
  3  80  32   -150.09053
  3  89  20   -150.09053
  3  104  38   -150.09053
END PERIOD

BEGIN PERIOD 56
  3  29  50   -150.11401
  3  35  41   -150.11401
  3  62  44   -150.11401
  3  80  32   -150.11401
  3  89  20   -150.11401
  3  104  38   -150.11401
END PERIOD

BEGIN PERIOD 57
  3  29  50   -150.08386
  3  35  41   -150.08386
  3  62  44   -150.08386
  3  80  32   -150.08386
  3  89  20   -150.08386
  3  104  38   -150.08386
END PERIOD

BEGIN PERIOD 58
  3  29  50   -150.11375
  3  35  41   -150.11375
  3  62  44   -150.11375
  3  80  32   -150.11375
  3  89  20   -150.11375
  3  104  38   -150.11375
END PERIOD

BEGIN PERIOD 59
  3  29  50   -150.03276
  3  35  41   -150.03276
  3  62  44   -150.03276
  3  80  32   -150.03276
  3  89  20   -150.03276
  3  104  38   -150.03276
END PERIOD

BEGIN PERIOD 60
  3  29  50   -150.01917
  3  35  41   -150.01917
  3  62  44   -150.01917
  3  80  32   -150.01917
  3  89  20   -150.01917
  3  104  38   -150.01917
END PERIOD

BEGIN PERIOD 61
  3  29  50   -150.04883
  3  35  41   -150.04883
  3  62  44   -150.04883
  3  80  32   -150.04883
  3  89  20   -150.04883
  3  104  38   -150.04883
END PERIOD

BEGIN PERIOD 62
  3  29  50   -150.14253
  3  35  41   -150.14253
  3  62  44   -150.14253
  3  80  32   -150.14253
  3  89  20   -150.14253
  3  104  38   -150.14253
END PERIOD

BEGIN PERIOD 63
  3  29  50   -150.14044
  3  35  41   -150.14044
  3  62  44   -150.14044
  3  80  32   -150.14044
  3  89  20   -150.14044
  3  104  38   -150.14044
END PERIOD

BEGIN PERIOD 64
  3  29  50   -150.14145
  3  35  41   -150.14145
  3  62  44   -150.14145
  3  80  32   -150.14145
  3  89  20   -150.14145
  3  104  38   -150.14145
END PERIOD

BEGIN PERIOD 65
  3  29  50   -150.12332
  3  35  41   -150.12332
  3  62  44   -150.12332
  3  80  32   -150.12332
  3  89  20   -150.12332
  3  104  38   -150.12332
END PERIOD

BEGIN PERIOD 66
  3  29  50   -150.03712
  3  35  41   -150.03712
  3  62  44   -150.03712
  3  80  32   -150.03712
  3  89  20   -150.03712
  3  104  38   -150.03712
END PERIOD

BEGIN PERIOD 67
  3  29  50   -150.08052
  3  35  41   -150.08052
  3  62  44   -150.08052
  3  80  32   -150.08052
  3  89  20   -150.08052
  3  104  38   -150.08052
END PERIOD

BEGIN PERIOD 68
  3  29  50   -150.13548
  3  35  41   -150.13548
  3  62  44   -150.13548
  3  80  32   -150.13548
  3  89  20   -150.13548
  3  104  38   -150.13548
END PERIOD

BEGIN PERIOD 69
  3  29  50   -150.09938
  3  35  41   -150.09938
  3  62  44   -150.09938
  3  80  32   -150.09938
  3  89  20   -150.09938
  3  104  38   -150.09938
END PERIOD

BEGIN PERIOD 70
  3  29  50   -150.13885
  3  35  41   -150.13885
  3  62  44   -150.13885
  3  80  32   -150.13885
  3  89  20   -150.13885
  3  104  38   -150.13885
END PERIOD

BEGIN PERIOD 71
  3  29  50   -150.04642
  3  35  41   -150.04642
  3  62  44   -150.04642
  3  80  32   -150.04642
  3  89  20   -150.04642
  3  104  38   -150.04642
END PERIOD

BEGIN PERIOD 72
  3  29  50   -150.00958
  3  35  41   -150.00958
  3  62  44   -150.00958
  3  80  32   -150.00958
  3  89  20   -150.00958
  3  104  38   -150.00958
END PERIOD

BEGIN PERIOD 73
  3  29  50   -150.01402
  3  35  41   -150.01402
  3  62  44   -150.01402
  3  80  32   -150.01402
  3  89  20   -150.01402
  3  104  38   -150.01402
END PERIOD

BEGIN PERIOD 74
  3  29  50   -150.02768
  3  35  41   -150.02768
  3  62  44   -150.02768
  3  80  32   -150.02768
  3  89  20   -150.02768
  3  104  38   -150.02768
END PERIOD

BEGIN PERIOD 75
  3  29  50   -150.13550
  3  35  41   -150.13550
  3  62  44   -150.13550
  3  80  32   -150.13550
  3  89  20   -150.13550
  3  104  38   -150.13550
END PERIOD

BEGIN PERIOD 76
  3  29  50   -150.07068
  3  35  41   -150.07068
  3  62  44   -150.07068
  3  80  32   -150.07068
  3  89  20   -150.07068
  3  104  38   -150.07068
END PERIOD

BEGIN PERIOD 77
  3  29  50   -150.08665
  3  35  41   -150.08665
  3  62  44   -150.08665
  3  80  32   -150.08665
  3  89  20   -150.08665
  3  104  38   -150.08665
END PERIOD

BEGIN PERIOD 78
  3  29  50   -150.08700
  3  35  41   -150.08700
  3  62  44   -150.08700
  3  80  32   -150.08700
  3  89  20   -150.08700
  3  104  38   -150.08700
END PERIOD

BEGIN PERIOD 79
  3  29  50   -150.00404
  3  35  41   -150.00404
  3  62  44   -150.00404
  3  80  32   -150.00404
  3  89  20   -150.00404
  3  104  38   -150.00404
END PERIOD

BEGIN PERIOD 80
  3  29  50   -150.00488
  3  35  41   -150.00488
  3  62  44   -150.00488
  3  80  32   -150.00488
  3  89  20   -150.00488
  3  104  38   -150.00488
END PERIOD

BEGIN PERIOD 81
  3  29  50   -150.06537
  3  35  41   -150.06537
  3  62  44   -150.06537
  3  80  32   -150.06537
  3  89  20   -150.06537
  3  104  38   -150.06537
END PERIOD

BEGIN PERIOD 82
  3  29  50   -150.00357
  3  35  41   -150.00357
  3  62  44   -150.00357
  3  80  32   -150.00357
  3  89  20   -150.00357
  3  104  38   -150.00357
END PERIOD

BEGIN PERIOD 83
  3  29  50   -150.10902
  3  35  41   -150.10902
  3  62  44   -150.10902
  3  80  32   -150.10902
  3  89  20   -150.10902
  3  104  38   -150.10902
END PERIOD

BEGIN PERIOD 84
  3  29  50   -150.00034
  3  35  41   -150.00034
  3  62  44   -150.00034
  3  80  32   -150.00034
  3  89  20   -150.00034
  3  104  38   -150.00034
END PERIOD

BEGIN PERIOD 85
  3  29  50   -150.02911
  3  35  41   -150.02911
  3  62  44   -150.02911
  3  80  32   -150.02911
  3  89  20   -150.02911
  3  104  38   -150.02911
END PERIOD

BEGIN PERIOD 86
  3  29  50   -150.13431
  3  35  41   -150.13431
  3  62  44   -150.13431
  3  80  32   -150.13431
  3  89  20   -150.13431
  3  104  38   -150.13431
END PERIOD

BEGIN PERIOD 87
  3  29  50   -150.02612
  3  35  41   -150.02612
  3  62  44   -150.02612
  3  80  32   -150.02612
  3  89  20   -150.02612
  3  104  38   -150.02612
END PERIOD

BEGIN PERIOD 88
  3  29  50   -150.04494
  3  35  41   -150.04494
  3  62  44   -150.04494
  3  80  32   -150.04494
  3  89  20   -150.04494
  3  104  38   -150.04494
END PERIOD

BEGIN PERIOD 89
  3  29  50   -150.10767
  3  35  41   -150.10767
  3  62  44   -150.10767
  3  80  32   -150.10767
  3  89  20   -150.10767
  3  104  38   -150.10767
END PERIOD

BEGIN PERIOD 90
  3  29  50   -150.01234
  3  35  41   -150.01234
  3  62  44   -150.01234
  3  80  32   -150.01234
  3  89  20   -150.01234
  3  104  38   -150.01234
END PERIOD

BEGIN PERIOD 91
  3  29  50   -150.12890
  3  35  41   -150.12890
  3  62  44   -150.12890
  3  80  32   -150.12890
  3  89  20   -150.12890
  3  104  38   -150.12890
END PERIOD

BEGIN PERIOD 92
  3  29  50   -150.11711
  3  35  41   -150.11711
  3  62  44   -150.11711
  3  80  32   -150.11711
  3  89  20   -150.11711
  3  104  38   -150.11711
END PERIOD

BEGIN PERIOD 93
  3  29  50   -150.06813
  3  35  41   -150.06813
  3  62  44   -150.06813
  3  80  32   -150.06813
  3  89  20   -150.06813
  3  104  38   -150.06813
END PERIOD

BEGIN PERIOD 94
  3  29  50   -150.14032
  3  35  41   -150.14032
  3  62  44   -150.14032
  3  80  32   -150.14032
  3  89  20   -150.14032
  3  104  38   -150.14032
END PERIOD

BEGIN PERIOD 95
  3  29  50   -150.07878
  3  35  41   -150.07878
  3  62  44   -150.07878
  3  80  32   -150.07878
  3  89  20   -150.07878
  3  104  38   -150.07878
END PERIOD

BEGIN PERIOD 96
  3  29  50   -150.04616
  3  35  41   -150.04616
  3  62  44   -150.04616
  3  80  32   -150.04616
  3  89  20   -150.04616
  3  104  38   -150.04616
END PERIOD

BEGIN PERIOD 97
  3  29  50   -150.13391
  3  35  41   -150.13391
  3  62  44   -150.13391
  3  80  32   -150.13391
  3  89  20   -150.13391
  3  104  38   -150.13391
END PERIOD

BEGIN PERIOD 98
  3  29  50   -150.01970
  3  35  41   -150.01970
  3  62  44   -150.01970
  3  80  32   -150.01970
  3  89  20   -150.01970
  3  104  38   -150.01970
END PERIOD

BEGIN PERIOD 99
  3  29  50   -150.08316
  3  35  41   -150.08316
  3  62  44   -150.08316
  3  80  32   -150.08316
  3  89  20   -150.08316
  3  104  38   -150.08316
END PERIOD

BEGIN PERIOD 100
  3  29  50   -150.10756
  3  35  41   -150.10756
  3  62  44   -150.10756
  3  80  32   -150.10756
  3  89  20   -150.10756
  3  104  38   -150.10756
END PERIOD

BEGIN PERIOD 101
  3  29  50   -150.12154
  3  35  41   -150.12154
  3  62  44   -150.12154
  3  80  32   -150.12154
  3  89  20   -150.12154
  3  104  38   -150.12154
END PERIOD

BEGIN PERIOD 102
  3  29  50   -150.09312
  3  35  41   -150.09312
  3  62  44   -150.09312
  3  80  32   -150.09312
  3  89  20   -150.09312
  3  104  38   -150.09312
END PERIOD

BEGIN PERIOD 103
  3  29  50   -150.09325
  3  35  41   -150.09325
  3  62  44   -150.09325
  3  80  32   -150.09325
  3  89  20   -150.09325
  3  104  38   -150.09325
END PERIOD

BEGIN PERIOD 104
  3  29  50   -150.02975
  3  35  41   -150.02975
  3  62  44   -150.02975
  3  80  32   -150.02975
  3  89  20   -150.02975
  3  104  38   -150.02975
END PERIOD

BEGIN PERIOD 105
  3  29  50   -150.02031
  3  35  41   -150.02031
  3  62  44   -150.02031
  3  80  32   -150.02031
  3  89  20   -150.02031
  3  104  38   -150.02031
END PERIOD

BEGIN PERIOD 106
  3  29  50   -150.12682
  3  35  41   -150.12682
  3  62  44   -150.12682
  3  80  32   -150.12682
  3  89  20   -150.12682
  3  104  38   -150.12682
END PERIOD

BEGIN PERIOD 107
  3  29  50   -150.09627
  3  35  41   -150.09627
  3  62  44   -150.09627
  3  80  32   -150.09627
  3  89  20   -150.09627
  3  104  38   -150.09627
END PERIOD

BEGIN PERIOD 108
  3  29  50   -150.14241
  3  35  41   -150.14241
  3  62  44   -150.14241
  3  80  32   -150.14241
  3  89  20   -150.14241
  3  104  38   -150.14241
END PERIOD

BEGIN PERIOD 109
  3  29  50   -150.12952
  3  35  41   -150.12952
  3  62  44   -150.12952
  3  80  32   -150.12952
  3  89  20   -150.12952
  3  104  38   -150.12952
END PERIOD

BEGIN PERIOD 110
  3  29  50   -150.12796
  3  35  41   -150.12796
  3  62  44   -150.12796
  3  80  32   -150.12796
  3  89  20   -150.12796
  3  104  38   -150.12796
END PERIOD

BEGIN PERIOD 111
  3  29  50   -150.10080
  3  35  41   -150.10080
  3  62  44   -150.10080
  3  80  32   -150.10080
  3  89  20   -150.10080
  3  104  38   -150.10080
END PERIOD

BEGIN PERIOD 112
  3  29  50   -150.07480
  3  35  41   -150.07480
  3  62  44   -150.07480
  3  80  32   -150.07480
  3  89  20   -150.07480
  3  104  38   -150.07480
END PERIOD

BEGIN PERIOD 113
  3  29  50   -150.10637
  3  35  41   -150.10637
  3  62  44   -150.10637
  3  80  32   -150.10637
  3  89  20   -150.10637
  3  104  38   -150.10637
END PERIOD

BEGIN PERIOD 114
  3  29  50   -150.00320
  3  35  41   -150.00320
  3  62  44   -150.00320
  3  80  32   -150.00320
  3  89  20   -150.00320
  3  104  38   -150.00320
END PERIOD

BEGIN PERIOD 115
  3  29  50   -150.09258
  3  35  41   -150.09258
  3  62  44   -150.09258
  3  80  32   -150.09258
  3  89  20   -150.09258
  3  104  38   -150.09258
END PERIOD

BEGIN PERIOD 116
  3  29  50   -150.11136
  3  35  41   -150.11136
  3  62  44   -150.11136
  3  80  32   -150.11136
  3  89  20   -150.11136
  3  104  38   -150.11136
END PERIOD

BEGIN PERIOD 117
  3  29  50   -150.00260
  3  35  41   -150.00260
  3  62  44   -150.00260
  3  80  32   -150.00260
  3  89  20   -150.00260
  3  104  38   -150.00260
END PERIOD

BEGIN PERIOD 118
  3  29  50   -150.05330
  3  35  41   -150.05330
  3  62  44   -150.05330
  3  80  32   -150.05330
  3  89  20   -150.05330
  3  104  38   -150.05330
END PERIOD

BEGIN PERIOD 119
  3  29  50   -150.02560
  3  35  41   -150.02560
  3  62  44   -150.02560
  3  80  32   -150.02560
  3  89  20   -150.02560
  3  104  38   -150.02560
END PERIOD

BEGIN PERIOD 120
  3  29  50   -150.00174
  3  35  41   -150.00174
  3  62  44   -150.00174
  3  80  32   -150.00174
  3  89  20   -150.00174
  3  104  38   -150.00174
END PERIOD

BEGIN PERIOD 121
  3  29  50   -150.12332
  3  35  41   -150.12332
  3  62  44   -150.12332
  3  80  32   -150.12332
  3  89  20   -150.12332
  3  104  38   -150.12332
END PERIOD

BEGIN PERIOD 122
  3  29  50   -150.12370
  3  35  41   -150.12370
  3  62  44   -150.12370
  3  80  32   -150.12370
  3  89  20   -150.12370
  3  104  38   -150.12370
END PERIOD

BEGIN PERIOD 123
  3  29  50   -150.10477
  3  35  41   -150.10477
  3  62  44   -150.10477
  3  80  32   -150.10477
  3  89  20   -150.10477
  3  104  38   -150.10477
END PERIOD

BEGIN PERIOD 124
  3  29  50   -150.10176
  3  35  41   -150.10176
  3  62  44   -150.10176
  3  80  32   -150.10176
  3  89  20   -150.10176
  3  104  38   -150.10176
END PERIOD

BEGIN PERIOD 125
  3  29  50   -150.02245
  3  35  41   -150.02245
  3  62  44   -150.02245
  3  80  32   -150.02245
  3  89  20   -150.02245
  3  104  38   -150.02245
END PERIOD

BEGIN PERIOD 126
  3  29  50   -150.03021
  3  35  41   -150.03021
  3  62  44   -150.03021
  3  80  32   -150.03021
  3  89  20   -150.03021
  3  104  38   -150.03021
END PERIOD

BEGIN PERIOD 127
  3  29  50   -150.11256
  3  35  41   -150.11256
  3  62  44   -150.11256
  3  80  32   -150.11256
  3  89  20   -150.11256
  3  104  38   -150.11256
END PERIOD

BEGIN PERIOD 128
  3  29  50   -150.14346
  3  35  41   -150.14346
  3  62  44   -150.14346
  3  80  32   -150.14346
  3  89  20   -150.14346
  3  104  38   -150.14346
END PERIOD

BEGIN PERIOD 129
  3  29  50   -150.05400
  3  35  41   -150.05400
  3  62  44   -150.05400
  3  80  32   -150.05400
  3  89  20   -150.05400
  3  104  38   -150.05400
END PERIOD

BEGIN PERIOD 130
  3  29  50   -150.14053
  3  35  41   -150.14053
  3  62  44   -150.14053
  3  80  32   -150.14053
  3  89  20   -150.14053
  3  104  38   -150.14053
END PERIOD

BEGIN PERIOD 131
  3  29  50   -150.00980
  3  35  41   -150.00980
  3  62  44   -150.00980
  3  80  32   -150.00980
  3  89  20   -150.00980
  3  104  38   -150.00980
END PERIOD

BEGIN PERIOD 132
  3  29  50   -150.01913
  3  35  41   -150.01913
  3  62  44   -150.01913
  3  80  32   -150.01913
  3  89  20   -150.01913
  3  104  38   -150.01913
END PERIOD

BEGIN PERIOD 133
  3  29  50   -150.11629
  3  35  41   -150.11629
  3  62  44   -150.11629
  3  80  32   -150.11629
  3  89  20   -150.11629
  3  104  38   -150.11629
END PERIOD

BEGIN PERIOD 134
  3  29  50   -150.11362
  3  35  41   -150.11362
  3  62  44   -150.11362
  3  80  32   -150.11362
  3  89  20   -150.11362
  3  104  38   -150.11362
END PERIOD

BEGIN PERIOD 135
  3  29  50   -150.01030
  3  35  41   -150.01030
  3  62  44   -150.01030
  3  80  32   -150.01030
  3  89  20   -150.01030
  3  104  38   -150.01030
END PERIOD

BEGIN PERIOD 136
  3  29  50   -150.10141
  3  35  41   -150.10141
  3  62  44   -150.10141
  3  80  32   -150.10141
  3  89  20   -150.10141
  3  104  38   -150.10141
END PERIOD

BEGIN PERIOD 137
  3  29  50   -150.04689
  3  35  41   -150.04689
  3  62  44   -150.04689
  3  80  32   -150.04689
  3  89  20   -150.04689
  3  104  38   -150.04689
END PERIOD

BEGIN PERIOD 138
  3  29  50   -150.00441
  3  35  41   -150.00441
  3  62  44   -150.00441
  3  80  32   -150.00441
  3  89  20   -150.00441
  3  104  38   -150.00441
END PERIOD

BEGIN PERIOD 139
  3  29  50   -150.12015
  3  35  41   -150.12015
  3  62  44   -150.12015
  3  80  32   -150.12015
  3  89  20   -150.12015
  3  104  38   -150.12015
END PERIOD

BEGIN PERIOD 140
  3  29  50   -150.07588
  3  35  41   -150.07588
  3  62  44   -150.07588
  3  80  32   -150.07588
  3  89  20   -150.07588
  3  104  38   -150.07588
END PERIOD

BEGIN PERIOD 141
  3  29  50   -150.01938
  3  35  41   -150.01938
  3  62  44   -150.01938
  3  80  32   -150.01938
  3  89  20   -150.01938
  3  104  38   -150.01938
END PERIOD

BEGIN PERIOD 142
  3  29  50   -150.03703
  3  35  41   -150.03703
  3  62  44   -150.03703
  3  80  32   -150.03703
  3  89  20   -150.03703
  3  104  38   -150.03703
END PERIOD

BEGIN PERIOD 143
  3  29  50   -150.10806
  3  35  41   -150.10806
  3  62  44   -150.10806
  3  80  32   -150.10806
  3  89  20   -150.10806
  3  104  38   -150.10806
END PERIOD

BEGIN PERIOD 144
  3  29  50   -150.07584
  3  35  41   -150.07584
  3  62  44   -150.07584
  3  80  32   -150.07584
  3  89  20   -150.07584
  3  104  38   -150.07584
END PERIOD

BEGIN PERIOD 145
  3  29  50   -150.01173
  3  35  41   -150.01173
  3  62  44   -150.01173
  3  80  32   -150.01173
  3  89  20   -150.01173
  3  104  38   -150.01173
END PERIOD

BEGIN PERIOD 146
  3  29  50   -150.07810
  3  35  41   -150.07810
  3  62  44   -150.07810
  3  80  32   -150.07810
  3  89  20   -150.07810
  3  104  38   -150.07810
END PERIOD

BEGIN PERIOD 147
  3  29  50   -150.09653
  3  35  41   -150.09653
  3  62  44   -150.09653
  3  80  32   -150.09653
  3  89  20   -150.09653
  3  104  38   -150.09653
END PERIOD

BEGIN PERIOD 148
  3  29  50   -150.13994
  3  35  41   -150.13994
  3  62  44   -150.13994
  3  80  32   -150.13994
  3  89  20   -150.13994
  3  104  38   -150.13994
END PERIOD

BEGIN PERIOD 149
  3  29  50   -150.02870
  3  35  41   -150.02870
  3  62  44   -150.02870
  3  80  32   -150.02870
  3  89  20   -150.02870
  3  104  38   -150.02870
END PERIOD

BEGIN PERIOD 150
  3  29  50   -150.12903
  3  35  41   -150.12903
  3  62  44   -150.12903
  3  80  32   -150.12903
  3  89  20   -150.12903
  3  104  38   -150.12903
END PERIOD

BEGIN PERIOD 151
  3  29  50   -150.11260
  3  35  41   -150.11260
  3  62  44   -150.11260
  3  80  32   -150.11260
  3  89  20   -150.11260
  3  104  38   -150.11260
END PERIOD

BEGIN PERIOD 152
  3  29  50   -150.06186
  3  35  41   -150.06186
  3  62  44   -150.06186
  3  80  32   -150.06186
  3  89  20   -150.06186
  3  104  38   -150.06186
END PERIOD

BEGIN PERIOD 153
  3  29  50   -150.01128
  3  35  41   -150.01128
  3  62  44   -150.01128
  3  80  32   -150.01128
  3  89  20   -150.01128
  3  104  38   -150.01128
END PERIOD

BEGIN PERIOD 154
  3  29  50   -150.13740
  3  35  41   -150.13740
  3  62  44   -150.13740
  3  80  32   -150.13740
  3  89  20   -150.13740
  3  104  38   -150.13740
END PERIOD

BEGIN PERIOD 155
  3  29  50   -150.12140
  3  35  41   -150.12140
  3  62  44   -150.12140
  3  80  32   -150.12140
  3  89  20   -150.12140
  3  104  38   -150.12140
END PERIOD

BEGIN PERIOD 156
  3  29  50   -150.14465
  3  35  41   -150.14465
  3  62  44   -150.14465
  3  80  32   -150.14465
  3  89  20   -150.14465
  3  104  38   -150.14465
END PERIOD

BEGIN PERIOD 157
  3  29  50   -150.01187
  3  35  41   -150.01187
  3  62  44   -150.01187
  3  80  32   -150.01187
  3  89  20   -150.01187
  3  104  38   -150.01187
END PERIOD

BEGIN PERIOD 158
  3  29  50   -150.00098
  3  35  41   -150.00098
  3  62  44   -150.00098
  3  80  32   -150.00098
  3  89  20   -150.00098
  3  104  38   -150.00098
END PERIOD

BEGIN PERIOD 159
  3  29  50   -150.09875
  3  35  41   -150.09875
  3  62  44   -150.09875
  3  80  32   -150.09875
  3  89  20   -150.09875
  3  104  38   -150.09875
END PERIOD

BEGIN PERIOD 160
  3  29  50   -150.03375
  3  35  41   -150.03375
  3  62  44   -150.03375
  3  80  32   -150.03375
  3  89  20   -150.03375
  3  104  38   -150.03375
END PERIOD

BEGIN PERIOD 161
  3  29  50   -150.07500
  3  35  41   -150.07500
  3  62  44   -150.07500
  3  80  32   -150.07500
  3  89  20   -150.07500
  3  104  38   -150.07500
END PERIOD

BEGIN PERIOD 162
  3  29  50   -150.06111
  3  35  41   -150.06111
  3  62  44   -150.06111
  3  80  32   -150.06111
  3  89  20   -150.06111
  3  104  38   -150.06111
END PERIOD

BEGIN PERIOD 163
  3  29  50   -150.01230
  3  35  41   -150.01230
  3  62  44   -150.01230
  3  80  32   -150.01230
  3  89  20   -150.01230
  3  104  38   -150.01230
END PERIOD

BEGIN PERIOD 164
  3  29  50   -150.07462
  3  35  41   -150.07462
  3  62  44   -150.07462
  3  80  32   -150.07462
  3  89  20   -150.07462
  3  104  38   -150.07462
END PERIOD

BEGIN PERIOD 165
  3  29  50   -150.13368
  3  35  41   -150.13368
  3  62  44   -150.13368
  3  80  32   -150.13368
  3  89  20   -150.13368
  3  104  38   -150.13368
END PERIOD

BEGIN PERIOD 166
  3  29  50   -150.14299
  3  35  41   -150.14299
  3  62  44   -150.14299
  3  80  32   -150.14299
  3  89  20   -150.14299
  3  104  38   -150.14299
END PERIOD

BEGIN PERIOD 167
  3  29  50   -150.13289