# WEL6 input file, prepared by MF5to6 on 6/30/2020 at 18:56:25.

BEGIN Options
  PRINT_INPUT
  PRINT_FLOWS
  SAVE_FLOWS
END Options

BEGIN Dimensions
  MAXBOUND  6
END Dimensions

BEGIN PERIOD 1
  3  29  50   -150.00000
  3  35  41   -150.00000
  3  62  44   -150.00000
  3  80  32   -150.00000
  3  89  20   -150.00000
  3  104  38   -150.00000
END PERIOD

BEGIN PERIOD 2
  3  29  50   -150.05351
  3  35  41   -150.05351
  3  62  44   -150.05351
  3  80  32   -150.05351
  3  89  20   -150.05351
  3  104  38   -150.05351
END PERIOD

BEGIN PERIOD 3
  3  29  50   -150.14777
  3  35  41   -150.14777
  3  62  44   -150.14777
  3  80  32   -150.14777
  3  89  20   -150.14777
  3  104  38   -150.14777
END PERIOD

BEGIN PERIOD 4
  3  29  50   -150.05563
  3  35  41   -150.05563
  3  62  44   -150.05563
  3  80  32   -150.05563
  3  89  20   -150.05563
  3  104  38   -150.05563
END PERIOD

BEGIN PERIOD 5
  3  29  50   -150.06837
  3  35  41   -150.06837
  3  62  44   -150.06837
  3  80  32   -150.06837
  3  89  20   -150.06837
  3  104  38   -150.06837
END PERIOD

BEGIN PERIOD 6
  3  29  50   -150.14073
  3  35  41   -150.14073
  3  62  44   -150.14073
  3  80  32   -150.14073
  3  89  20   -150.14073
  3  104  38   -150.14073
END PERIOD

BEGIN PERIOD 7
  3  29  50   -150.03598
  3  35  41   -150.03598
  3  62  44   -150.03598
  3  80  32   -150.03598
  3  89  20   -150.03598
  3  104  38   -150.03598
END PERIOD

BEGIN PERIOD 8
  3  29  50   -150.11171
  3  35  41   -150.11171
  3  62  44   -150.11171
  3  80  32   -150.11171
  3  89  20   -150.11171
  3  104  38   -150.11171
END PERIOD

BEGIN PERIOD 9
  3  29  50   -150.13535
  3  35  41   -150.13535
  3  62  44   -150.13535
  3  80  32   -150.13535
  3  89  20   -150.13535
  3  104  38   -150.13535
END PERIOD

BEGIN PERIOD 10
  3  29  50   -150.11765
  3  35  41   -150.11765
  3  62  44   -150.11765
  3  80  32   -150.11765
  3  89  20   -150.11765
  3  104  38   -150.11765
END PERIOD

BEGIN PERIOD 11
  3  29  50   -150.13652
  3  35  41   -150.13652
  3  62  44   -150.13652
  3  80  32   -150.13652
  3  89  20   -150.13652
  3  104  38   -150.13652
END PERIOD

BEGIN PERIOD 12
  3  29  50   -150.12138
  3  35  41   -150.12138
  3  62  44   -150.12138
  3  80  32   -150.12138
  3  89  20   -150.12138
  3  104  38   -150.12138
END PERIOD

BEGIN PERIOD 13
  3  29  50   -150.09730
  3  35  41   -150.09730
  3  62  44   -150.09730
  3  80  32   -150.09730
  3  89  20   -150.09730
  3  104  38   -150.09730
END PERIOD

BEGIN PERIOD 14
  3  29  50   -150.13368
  3  35  41   -150.13368
  3  62  44   -150.13368
  3  80  32   -150.13368
  3  89  20   -150.13368
  3  104  38   -150.13368
END PERIOD

BEGIN PERIOD 15
  3  29  50   -150.14069
  3  35  41   -150.14069
  3  62  44   -150.14069
  3  80  32   -150.14069
  3  89  20   -150.14069
  3  104  38   -150.14069
END PERIOD

BEGIN PERIOD 16
  3  29  50   -150.14922
  3  35  41   -150.14922
  3  62  44   -150.14922
  3  80  32   -150.14922
  3  89  20   -150.14922
  3  104  38   -150.14922
END PERIOD

BEGIN PERIOD 17
  3  29  50   -150.08293
  3  35  41   -150.08293
  3  62  44   -150.08293
  3  80  32   -150.08293
  3  89  20   -150.08293
  3  104  38   -150.08293
END PERIOD

BEGIN PERIOD 18
  3  29  50   -150.06644
  3  35  41   -150.06644
  3  62  44   -150.06644
  3  80  32   -150.06644
  3  89  20   -150.06644
  3  104  38   -150.06644
END PERIOD

BEGIN PERIOD 19
  3  29  50   -150.05328
  3  35  41   -150.05328
  3  62  44   -150.05328
  3  80  32   -150.05328
  3  89  20   -150.05328
  3  104  38   -150.05328
END PERIOD

BEGIN PERIOD 20
  3  29  50   -150.04337
  3  35  41   -150.04337
  3  62  44   -150.04337
  3  80  32   -150.04337
  3  89  20   -150.04337
  3  104  38   -150.04337
END PERIOD

BEGIN PERIOD 21
  3  29  50   -150.12045
  3  35  41   -150.12045
  3  62  44   -150.12045
  3  80  32   -150.12045
  3  89  20   -150.12045
  3  104  38   -150.12045
END PERIOD

BEGIN PERIOD 22
  3  29  50   -150.04486
  3  35  41   -150.04486
  3  62  44   -150.04486
  3  80  32   -150.04486
  3  89  20   -150.04486
  3  104  38   -150.04486
END PERIOD

BEGIN PERIOD 23
  3  29  50   -150.00395
  3  35  41   -150.00395
  3  62  44   -150.00395
  3  80  32   -150.00395
  3  89  20   -150.00395
  3  104  38   -150.00395
END PERIOD

BEGIN PERIOD 24
  3  29  50   -150.03694
  3  35  41   -150.03694
  3  62  44   -150.03694
  3  80  32   -150.03694
  3  89  20   -150.03694
  3  104  38   -150.03694
END PERIOD

BEGIN PERIOD 25
  3  29  50   -150.12808
  3  35  41   -150.12808
  3  62  44   -150.12808
  3  80  32   -150.12808
  3  89  20   -150.12808
  3  104  38   -150.12808
END PERIOD

BEGIN PERIOD 26
  3  29  50   -150.05539
  3  35  41   -150.05539
  3  62  44   -150.05539
  3  80  32   -150.05539
  3  89  20   -150.05539
  3  104  38   -150.05539
END PERIOD

BEGIN PERIOD 27
  3  29  50   -150.02248
  3  35  41   -150.02248
  3  62  44   -150.02248
  3  80  32   -150.02248
  3  89  20   -150.02248
  3  104  38   -150.02248
END PERIOD

BEGIN PERIOD 28
  3  29  50   -150.12560
  3  35  41   -150.12560
  3  62  44   -150.12560
  3  80  32   -150.12560
  3  89  20   -150.12560
  3  104  38   -150.12560
END PERIOD

BEGIN PERIOD 29
  3  29  50   -150.01532
  3  35  41   -150.01532
  3  62  44   -150.01532
  3  80  32   -150.01532
  3  89  20   -150.01532
  3  104  38   -150.01532
END PERIOD

BEGIN PERIOD 30
  3  29  50   -150.12744
  3  35  41   -150.12744
  3  62  44   -150.12744
  3  80  32   -150.12744
  3  89  20   -150.12744
  3  104  38   -150.12744
END PERIOD

BEGIN PERIOD 31
  3  29  50   -150.14693
  3  35  41   -150.14693
  3  62  44   -150.14693
  3  80  32   -150.14693
  3  89  20   -150.14693
  3  104  38   -150.14693
END PERIOD

BEGIN PERIOD 32
  3  29  50   -150.12840
  3  35  41   -150.12840
  3  62  44   -150.12840
  3  80  32   -150.12840
  3  89  20   -150.12840
  3  104  38   -150.12840
END PERIOD

BEGIN PERIOD 33
  3  29  50   -150.07886
  3  35  41   -150.07886
  3  62  44   -150.07886
  3  80  32   -150.07886
  3  89  20   -150.07886
  3  104  38   -150.07886
END PERIOD

BEGIN PERIOD 34
  3  29  50   -150.07630
  3  35  41   -150.07630
  3  62  44   -150.07630
  3  80  32   -150.07630
  3  89  20   -150.07630
  3  104  38   -150.07630
END PERIOD

BEGIN PERIOD 35
  3  29  50   -150.14319
  3  35  41   -150.14319
  3  62  44   -150.14319
  3  80  32   -150.14319
  3  89  20   -150.14319
  3  104  38   -150.14319
END PERIOD

BEGIN PERIOD 36
  3  29  50   -150.01762
  3  35  41   -150.01762
  3  62  44   -150.01762
  3  80  32   -150.01762
  3  89  20   -150.01762
  3  104  38   -150.01762
END PERIOD

BEGIN PERIOD 37
  3  29  50   -150.09532
  3  35  41   -150.09532
  3  62  44   -150.09532
  3  80  32   -150.09532
  3  89  20   -150.09532
  3  104  38   -150.09532
END PERIOD

BEGIN PERIOD 38
  3  29  50   -150.14119
  3  35  41   -150.14119
  3  62  44   -150.14119
  3  80  32   -150.14119
  3  89  20   -150.14119
  3  104  38   -150.14119
END PERIOD

BEGIN PERIOD 39
  3  29  50   -150.04462
  3  35  41   -150.04462
  3  62  44   -150.04462
  3  80  32   -150.04462
  3  89  20   -150.04462
  3  104  38   -150.04462
END PERIOD

BEGIN PERIOD 40
  3  29  50   -150.07457
  3  35  41   -150.07457
  3  62  44   -150.07457
  3  80  32   -150.07457
  3  89  20   -150.07457
  3  104  38   -150.07457
END PERIOD

BEGIN PERIOD 41
  3  29  50   -150.14597
  3  35  41   -150.14597
  3  62  44   -150.14597
  3  80  32   -150.14597
  3  89  20   -150.14597
  3  104  38   -150.14597
END PERIOD

BEGIN PERIOD 42
  3  29  50   -150.13000
  3  35  41   -150.13000
  3  62  44   -150.13000
  3  80  32   -150.13000
  3  89  20   -150.13000
  3  104  38   -150.13000
END PERIOD

BEGIN PERIOD 43
  3  29  50   -150.02571
  3  35  41   -150.02571
  3  62  44   -150.02571
  3  80  32   -150.02571
  3  89  20   -150.02571
  3  104  38   -150.02571
END PERIOD

BEGIN PERIOD 44
  3  29  50   -150.03374
  3  35  41   -150.03374
  3  62  44   -150.03374
  3  80  32   -150.03374
  3  89  20   -150.03374
  3  104  38   -150.03374
END PERIOD

BEGIN PERIOD 45
  3  29  50   -150.08789
  3  35  41   -150.08789
  3  62  44   -150.08789
  3  80  32   -150.08789
  3  89  20   -150.08789
  3  104  38   -150.08789
END PERIOD

BEGIN PERIOD 46
  3  29  50   -150.13205
  3  35  41   -150.13205
  3  62  44   -150.13205
  3  80  32   -150.13205
  3  89  20   -150.13205
  3  104  38   -150.13205
END PERIOD

BEGIN PERIOD 47
  3  29  50   -150.01494
  3  35  41   -150.01494
  3  62  44   -150.01494
  3  80  32   -150.01494
  3  89  20   -150.01494
  3  104  38   -150.01494
END PERIOD

BEGIN PERIOD 48
  3  29  50   -150.11934
  3  35  41   -150.11934
  3  62  44   -150.11934
  3  80  32   -150.11934
  3  89  20   -150.11934
  3  104  38   -150.11934
END PERIOD

BEGIN PERIOD 49
  3  29  50   -150.05421
  3  35  41   -150.05421
  3  62  44   -150.05421
  3  80  32   -150.05421
  3  89  20   -150.05421
  3  104  38   -150.05421
END PERIOD

BEGIN PERIOD 50
  3  29  50   -150.12929
  3  35  41   -150.12929
  3  62  44   -150.12929
  3  80  32   -150.12929
  3  89  20   -150.12929
  3  104  38   -150.12929
END PERIOD

BEGIN PERIOD 51
  3  29  50   -150.06390
  3  35  41   -150.06390
  3  62  44   -150.06390
  3  80  32   -150.06390
  3  89  20   -150.06390
  3  104  38   -150.06390
END PERIOD

BEGIN PERIOD 52
  3  29  50   -150.01860
  3  35  41   -150.01860
  3  62  44   -150.01860
  3  80  32   -150.01860
  3  89  20   -150.01860
  3  104  38   -150.01860
END PERIOD

BEGIN PERIOD 53
  3  29  50   -150.02539
  3  35  41   -150.02539
  3  62  44   -150.02539
  3  80  32   -150.02539
  3  89  20   -150.02539
  3  104  38   -150.02539
END PERIOD

BEGIN PERIOD 54
  3  29  50   -150.01509
  3  35  41   -150.01509
  3  62  44   -150.01509
  3  80  32   -150.01509
  3  89  20   -150.01509
  3  104  38   -150.01509
END PERIOD

BEGIN PERIOD 55
  3  29  50   -150.13847
  3  35  41   -150.13847
  3  62  44   -150.13847
  3  80  32   -150.13847
  3  89  20   -150.13847
  3  104  38   -150.13847
END PERIOD

BEGIN PERIOD 56
  3  29  50   -150.13753
  3  35  41   -150.13753
  3  62  44   -150.13753
  3  80  32   -150.13753
  3  89  20   -150.13753
  3  104  38   -150.13753
END PERIOD

BEGIN PERIOD 57
  3  29  50   -150.03935
  3  35  41   -150.03935
  3  62  44   -150.03935
  3  80  32   -150.03935
  3  89  20   -150.03935
  3  104  38   -150.03935
END PERIOD

BEGIN PERIOD 58
  3  29  50   -150.01933
  3  35  41   -150.01933
  3  62  44   -150.01933
  3  80  32   -150.01933
  3  89  20   -150.01933
  3  104  38   -150.01933
END PERIOD

BEGIN PERIOD 59
  3  29  50   -150.10844
  3  35  41   -150.10844
  3  62  44   -150.10844
  3  80  32   -150.10844
  3  89  20   -150.10844
  3  104  38   -150.10844
END PERIOD

BEGIN PERIOD 60
  3  29  50   -150.08154
  3  35  41   -150.08154
  3  62  44   -150.08154
  3  80  32   -150.08154
  3  89  20   -150.08154
  3  104  38   -150.08154
END PERIOD

BEGIN PERIOD 61
  3  29  50   -150.12889
  3  35  41   -150.12889
  3  62  44   -150.12889
  3  80  32   -150.12889
  3  89  20   -150.12889
  3  104  38   -150.12889
END PERIOD

BEGIN PERIOD 62
  3  29  50   -150.11769
  3  35  41   -150.11769
  3  62  44   -150.11769
  3  80  32   -150.11769
  3  89  20   -150.11769
  3  104  38   -150.11769
END PERIOD

BEGIN PERIOD 63
  3  29  50   -150.13423
  3  35  41   -150.13423
  3  62  44   -150.13423
  3  80  32   -150.13423
  3  89  20   -150.13423
  3  104  38   -150.13423
END PERIOD

BEGIN PERIOD 64
  3  29  50   -150.02428
  3  35  41   -150.02428
  3  62  44   -150.02428
  3  80  32   -150.02428
  3  89  20   -150.02428
  3  104  38   -150.02428
END PERIOD

BEGIN PERIOD 65
  3  29  50   -150.12306
  3  35  41   -150.12306
  3  62  44   -150.12306
  3  80  32   -150.12306
  3  89  20   -150.12306
  3  104  38   -150.12306
END PERIOD

BEGIN PERIOD 66
  3  29  50   -150.07019
  3  35  41   -150.07019
  3  62  44   -150.07019
  3  80  32   -150.07019
  3  89  20   -150.07019
  3  104  38   -150.07019
END PERIOD

BEGIN PERIOD 67
  3  29  50   -150.12300
  3  35  41   -150.12300
  3  62  44   -150.12300
  3  80  32   -150.12300
  3  89  20   -150.12300
  3  104  38   -150.12300
END PERIOD

BEGIN PERIOD 68
  3  29  50   -150.01053
  3  35  41   -150.01053
  3  62  44   -150.01053
  3  80  32   -150.01053
  3  89  20   -150.01053
  3  104  38   -150.01053
END PERIOD

BEGIN PERIOD 69
  3  29  50   -150.12428
  3  35  41   -150.12428
  3  62  44   -150.12428
  3  80  32   -150.12428
  3  89  20   -150.12428
  3  104  38   -150.12428
END PERIOD

BEGIN PERIOD 70
  3  29  50   -150.13243
  3  35  41   -150.13243
  3  62  44   -150.13243
  3  80  32   -150.13243
  3  89  20   -150.13243
  3  104  38   -150.13243
END PERIOD

BEGIN PERIOD 71
  3  29  50   -150.01370
  3  35  41   -150.01370
  3  62  44   -150.01370
  3  80  32   -150.01370
  3  89  20   -150.01370
  3  104  38   -150.01370
END PERIOD

BEGIN PERIOD 72
  3  29  50   -150.04485
  3  35  41   -150.04485
  3  62  44   -150.04485
  3  80  32   -150.04485
  3  89  20   -150.04485
  3  104  38   -150.04485
END PERIOD

BEGIN PERIOD 73
  3  29  50   -150.05565
  3  35  41   -150.05565
  3  62  44   -150.05565
  3  80  32   -150.05565
  3  89  20   -150.05565
  3  104  38   -150.05565
END PERIOD

BEGIN PERIOD 74
  3  29  50   -150.12779
  3  35  41   -150.12779
  3  62  44   -150.12779
  3  80  32   -150.12779
  3  89  20   -150.12779
  3  104  38   -150.12779
END PERIOD

BEGIN PERIOD 75
  3  29  50   -150.13470
  3  35  41   -150.13470
  3  62  44   -150.13470
  3  80  32   -150.13470
  3  89  20   -150.13470
  3  104  38   -150.13470
END PERIOD

BEGIN PERIOD 76
  3  29  50   -150.11285
  3  35  41   -150.11285
  3  62  44   -150.11285
  3  80  32   -150.11285
  3  89  20   -150.11285
  3  104  38   -150.11285
END PERIOD

BEGIN PERIOD 77
  3  29  50   -150.06271
  3  35  41   -150.06271
  3  62  44   -150.06271
  3  80  32   -150.06271
  3  89  20   -150.06271
  3  104  38   -150.06271
END PERIOD

BEGIN PERIOD 78
  3  29  50   -150.07650
  3  35  41   -150.07650
  3  62  44   -150.07650
  3  80  32   -150.07650
  3  89  20   -150.07650
  3  104  38   -150.07650
END PERIOD

BEGIN PERIOD 79
  3  29  50   -150.06638
  3  35  41   -150.06638
  3  62  44   -150.06638
  3  80  32   -150.06638
  3  89  20   -150.06638
  3  104  38   -150.06638
END PERIOD

BEGIN PERIOD 80
  3  29  50   -150.10397
  3  35  41   -150.10397
  3  62  44   -150.10397
  3  80  32   -150.10397
  3  89  20   -150.10397
  3  104  38   -150.10397
END PERIOD

BEGIN PERIOD 81
  3  29  50   -150.14359
  3  35  41   -150.14359
  3  62  44   -150.14359
  3  80  32   -150.14359
  3  89  20   -150.14359
  3  104  38   -150.14359
END PERIOD

BEGIN PERIOD 82
  3  29  50   -150.10660
  3  35  41   -150.10660
  3  62  44   -150.10660
  3  80  32   -150.10660
  3  89  20   -150.10660
  3  104  38   -150.10660
END PERIOD

BEGIN PERIOD 83
  3  29  50   -150.11394
  3  35  41   -150.11394
  3  62  44   -150.11394
  3  80  32   -150.11394
  3  89  20   -150.11394
  3  104  38   -150.11394
END PERIOD

BEGIN PERIOD 84
  3  29  50   -150.09238
  3  35  41   -150.09238
  3  62  44   -150.09238
  3  80  32   -150.09238
  3  89  20   -150.09238
  3  104  38   -150.09238
END PERIOD

BEGIN PERIOD 85
  3  29  50   -150.07167
  3  35  41   -150.07167
  3  62  44   -150.07167
  3  80  32   -150.07167
  3  89  20   -150.07167
  3  104  38   -150.07167
END PERIOD

BEGIN PERIOD 86
  3  29  50   -150.07217
  3  35  41   -150.07217
  3  62  44   -150.07217
  3  80  32   -150.07217
  3  89  20   -150.07217
  3  104  38   -150.07217
END PERIOD

BEGIN PERIOD 87
  3  29  50   -150.05632
  3  35  41   -150.05632
  3  62  44   -150.05632
  3  80  32   -150.05632
  3  89  20   -150.05632
  3  104  38   -150.05632
END PERIOD

BEGIN PERIOD 88
  3  29  50   -150.14746
  3  35  41   -150.14746
  3  62  44   -150.14746
  3  80  32   -150.14746
  3  89  20   -150.14746
  3  104  38   -150.14746
END PERIOD

BEGIN PERIOD 89
  3  29  50   -150.10803
  3  35  41   -150.10803
  3  62  44   -150.10803
  3  80  32   -150.10803
  3  89  20   -150.10803
  3  104  38   -150.10803
END PERIOD

BEGIN PERIOD 90
  3  29  50   -150.13605
  3  35  41   -150.13605
  3  62  44   -150.13605
  3  80  32   -150.13605
  3  89  20   -150.13605
  3  104  38   -150.13605
END PERIOD

BEGIN PERIOD 91
  3  29  50   -150.10303
  3  35  41   -150.10303
  3  62  44   -150.10303
  3  80  32   -150.10303
  3  89  20   -150.10303
  3  104  38   -150.10303
END PERIOD

BEGIN PERIOD 92
  3  29  50   -150.14632
  3  35  41   -150.14632
  3  62  44   -150.14632
  3  80  32   -150.14632
  3  89  20   -150.14632
  3  104  38   -150.14632
END PERIOD

BEGIN PERIOD 93
  3  29  50   -150.00378
  3  35  41   -150.00378
  3  62  44   -150.00378
  3  80  32   -150.00378
  3  89  20   -150.00378
  3  104  38   -150.00378
END PERIOD

BEGIN PERIOD 94
  3  29  50   -150.09561
  3  35  41   -150.09561
  3  62  44   -150.09561
  3  80  32   -150.09561
  3  89  20   -150.09561
  3  104  38   -150.09561
END PERIOD

BEGIN PERIOD 95
  3  29  50   -150.01324
  3  35  41   -150.01324
  3  62  44   -150.01324
  3  80  32   -150.01324
  3  89  20   -150.01324
  3  104  38   -150.01324
END PERIOD

BEGIN PERIOD 96
  3  29  50   -150.03133
  3  35  41   -150.03133
  3  62  44   -150.03133
  3  80  32   -150.03133
  3  89  20   -150.03133
  3  104  38   -150.03133
END PERIOD

BEGIN PERIOD 97
  3  29  50   -150.05466
  3  35  41   -150.05466
  3  62  44   -150.05466
  3  80  32   -150.05466
  3  89  20   -150.05466
  3  104  38   -150.05466
END PERIOD

BEGIN PERIOD 98
  3  29  50   -150.00687
  3  35  41   -150.00687
  3  62  44   -150.00687
  3  80  32   -150.00687
  3  89  20   -150.00687
  3  104  38   -150.00687
END PERIOD

BEGIN PERIOD 99
  3  29  50   -150.01419
  3  35  41   -150.01419
  3  62  44   -150.01419
  3  80  32   -150.01419
  3  89  20   -150.01419
  3  104  38   -150.01419
END PERIOD

BEGIN PERIOD 100
  3  29  50   -150.14642
  3  35  41   -150.14642
  3  62  44   -150.14642
  3  80  32   -150.14642
  3  89  20   -150.14642
  3  104  38   -150.14642
END PERIOD

BEGIN PERIOD 101
  3  29  50   -150.10970
  3  35  41   -150.10970
  3  62  44   -150.10970
  3  80  32   -150.10970
  3  89  20   -150.10970
  3  104  38   -150.10970
END PERIOD

BEGIN PERIOD 102
  3  29  50   -150.08272
  3  35  41   -150.08272
  3  62  44   -150.08272
  3  80  32   -150.08272
  3  89  20   -150.08272
  3  104  38   -150.08272
END PERIOD

BEGIN PERIOD 103
  3  29  50   -150.08446
  3  35  41   -150.08446
  3  62  44   -150.08446
  3  80  32   -150.08446
  3  89  20   -150.08446
  3  104  38   -150.08446
END PERIOD

BEGIN PERIOD 104
  3  29  50   -150.02124
  3  35  41   -150.02124
  3  62  44   -150.02124
  3  80  32   -150.02124
  3  89  20   -150.02124
  3  104  38   -150.02124
END PERIOD

BEGIN PERIOD 105
  3  29  50   -150.01273
  3  35  41   -150.01273
  3  62  44   -150.01273
  3  80  32   -150.01273
  3  89  20   -150.01273
  3  104  38   -150.01273
END PERIOD

BEGIN PERIOD 106
  3  29  50   -150.10893
  3  35  41   -150.10893
  3  62  44   -150.10893
  3  80  32   -150.10893
  3  89  20   -150.10893
  3  104  38   -150.10893
END PERIOD

BEGIN PERIOD 107
  3  29  50   -150.14857
  3  35  41   -150.14857
  3  62  44   -150.14857
  3  80  32   -150.14857
  3  89  20   -150.14857
  3  104  38   -150.14857
END PERIOD

BEGIN PERIOD 108
  3  29  50   -150.00357
  3  35  41   -150.00357
  3  62  44   -150.00357
  3  80  32   -150.00357
  3  89  20   -150.00357
  3  104  38   -150.00357
END PERIOD

BEGIN PERIOD 109
  3  29  50   -150.10765
  3  35  41   -150.10765
  3  62  44   -150.10765
  3  80  32   -150.10765
  3  89  20   -150.10765
  3  104  38   -150.10765
END PERIOD

BEGIN PERIOD 110
  3  29  50   -150.14423
  3  35  41   -150.14423
  3  62  44   -150.14423
  3  80  32   -150.14423
  3  89  20   -150.14423
  3  104  38   -150.14423
END PERIOD

BEGIN PERIOD 111
  3  29  50   -150.00902
  3  35  41   -150.00902
  3  62  44   -150.00902
  3  80  32   -150.00902
  3  89  20   -150.00902
  3  104  38   -150.00902
END PERIOD

BEGIN PERIOD 112
  3  29  50   -150.11113
  3  35  41   -150.11113
  3  62  44   -150.11113
  3  80  32   -150.11113
  3  89  20   -150.11113
  3  104  38   -150.11113
END PERIOD

BEGIN PERIOD 113
  3  29  50   -150.09746
  3  35  41   -150.09746
  3  62  44   -150.09746
  3  80  32   -150.09746
  3  89  20   -150.09746
  3  104  38   -150.09746
END PERIOD

BEGIN PERIOD 114
  3  29  50   -150.05016
  3  35  41   -150.05016
  3  62  44   -150.05016
  3  80  32   -150.05016
  3  89  20   -150.05016
  3  104  38   -150.05016
END PERIOD

BEGIN PERIOD 115
  3  29  50   -150.00308
  3  35  41   -150.00308
  3  62  44   -150.00308
  3  80  32   -150.00308
  3  89  20   -150.00308
  3  104  38   -150.00308
END PERIOD

BEGIN PERIOD 116
  3  29  50   -150.04960
  3  35  41   -150.04960
  3  62  44   -150.04960
  3  80  32   -150.04960
  3  89  20   -150.04960
  3  104  38   -150.04960
END PERIOD

BEGIN PERIOD 117
  3  29  50   -150.03128
  3  35  41   -150.03128
  3  62  44   -150.03128
  3  80  32   -150.03128
  3  89  20   -150.03128
  3  104  38   -150.03128
END PERIOD

BEGIN PERIOD 118
  3  29  50   -150.13368
  3  35  41   -150.13368
  3  62  44   -150.13368
  3  80  32   -150.13368
  3  89  20   -150.13368
  3  104  38   -150.13368
END PERIOD

BEGIN PERIOD 119
  3  29  50   -150.00270
  3  35  41   -150.00270
  3  62  44   -150.00270
  3  80  32   -150.00270
  3  89  20   -150.00270
  3  104  38   -150.00270
END PERIOD

BEGIN PERIOD 120
  3  29  50   -150.13673
  3  35  41   -150.13673
  3  62  44   -150.13673
  3  80  32   -150.13673
  3  89  20   -150.13673
  3  104  38   -150.13673
END PERIOD

BEGIN PERIOD 121
  3  29  50   -150.03645
  3  35  41   -150.03645
  3  62  44   -150.03645
  3  80  32   -150.03645
  3  89  20   -150.03645
  3  104  38   -150.03645
END PERIOD

BEGIN PERIOD 122
  3  29  50   -150.10625
  3  35  41   -150.10625
  3  62  44   -150.10625
  3  80  32   -150.10625
  3  89  20   -150.10625
  3  104  38   -150.10625
END PERIOD

BEGIN PERIOD 123
  3  29  50   -150.01213
  3  35  41   -150.01213
  3  62  44   -150.01213
  3  80  32   -150.01213
  3  89  20   -150.01213
  3  104  38   -150.01213
END PERIOD

BEGIN PERIOD 124
  3  29  50   -150.08325
  3  35  41   -150.08325
  3  62  44   -150.08325
  3  80  32   -150.08325
  3  89  20   -150.08325
  3  104  38   -150.08325
END PERIOD

BEGIN PERIOD 125
  3  29  50   -150.00398
  3  35  41   -150.00398
  3  62  44   -150.00398
  3  80  32   -150.00398
  3  89  20   -150.00398
  3  104  38   -150.00398
END PERIOD

BEGIN PERIOD 126
  3  29  50   -150.08717
  3  35  41   -150.08717
  3  62  44   -150.08717
  3  80  32   -150.08717
  3  89  20   -150.08717
  3  104  38   -150.08717
END PERIOD

BEGIN PERIOD 127
  3  29  50   -150.13298
  3  35  41   -150.13298
  3  62  44   -150.13298
  3  80  32   -150.13298
  3  89  20   -150.13298
  3  104  38   -150.13298
END PERIOD

BEGIN PERIOD 128
  3  29  50   -150.04211
  3  35  41   -150.04211
  3  62  44   -150.04211
  3  80  32   -150.04211
  3  89  20   -150.04211
  3  104  38   -150.04211
END PERIOD

BEGIN PERIOD 129
  3  29  50   -150.08801
  3  35  41   -150.08801
  3  62  44   -150.08801
  3  80  32   -150.08801
  3  89  20   -150.08801
  3  104  38   -150.08801
END PERIOD

BEGIN PERIOD 130
  3  29  50   -150.10402
  3  35  41   -150.10402
  3  62  44   -150.10402
  3  80  32   -150.10402
  3  89  20   -150.10402
  3  104  38   -150.10402
END PERIOD

BEGIN PERIOD 131
  3  29  50   -150.08280
  3  35  41   -150.08280
  3  62  44   -150.08280
  3  80  32   -150.08280
  3  89  20   -150.08280
  3  104  38   -150.08280
END PERIOD

BEGIN PERIOD 132
  3  29  50   -150.05978
  3  35  41   -150.05978
  3  62  44   -150.05978
  3  80  32   -150.05978
  3  89  20   -150.05978
  3  104  38   -150.05978
END PERIOD

BEGIN PERIOD 133
  3  29  50   -150.01575
  3  35  41   -150.01575
  3  62  44   -150.01575
  3  80  32   -150.01575
  3  89  20   -150.01575
  3  104  38   -150.01575
END PERIOD

BEGIN PERIOD 134
  3  29  50   -150.12431
  3  35  41   -150.12431
  3  62  44   -150.12431
  3  80  32   -150.12431
  3  89  20   -150.12431
  3  104  38   -150.12431
END PERIOD

BEGIN PERIOD 135
  3  29  50   -150.01720
  3  35  41   -150.01720
  3  62  44   -150.01720
  3  80  32   -150.01720
  3  89  20   -150.01720
  3  104  38   -150.01720
END PERIOD

BEGIN PERIOD 136
  3  29  50   -150.04868
  3  35  41   -150.04868
  3  62  44   -150.04868
  3  80  32   -150.04868
  3  89  20   -150.04868
  3  104  38   -150.04868
END PERIOD

BEGIN PERIOD 137
  3  29  50   -150.06267
  3  35  41   -150.06267
  3  62  44   -150.06267
  3  80  32   -150.06267
  3  89  20   -150.06267
  3  104  38   -150.06267
END PERIOD

BEGIN PERIOD 138
  3  29  50   -150.11800
  3  35  41   -150.11800
  3  62  44   -150.11800
  3  80  32   -150.11800
  3  89  20   -150.11800
  3  104  38   -150.11800
END PERIOD

BEGIN PERIOD 139
  3  29  50   -150.14743
  3  35  41   -150.14743
  3  62  44   -150.14743
  3  80  32   -150.14743
  3  89  20   -150.14743
  3  104  38   -150.14743
END PERIOD

BEGIN PERIOD 140
  3  29  50   -150.06544
  3  35  41   -150.06544
  3  62  44   -150.06544
  3  80  32   -150.06544
  3  89  20   -150.06544
  3  104  38   -150.06544
END PERIOD

BEGIN PERIOD 141
  3  29  50   -150.09200
  3  35  41   -150.09200
  3  62  44   -150.09200
  3  80  32   -150.09200
  3  89  20   -150.09200
  3  104  38   -150.09200
END PERIOD

BEGIN PERIOD 142
  3  29  50   -150.11989
  3  35  41   -150.11989
  3  62  44   -150.11989
  3  80  32   -150.11989
  3  89  20   -150.11989
  3  104  38   -150.11989
END PERIOD

BEGIN PERIOD 143
  3  29  50   -150.06595
  3  35  41   -150.06595
  3  62  44   -150.06595
  3  80  32   -150.06595
  3  89  20   -150.06595
  3  104  38   -150.06595
END PERIOD

BEGIN PERIOD 144
  3  29  50   -150.13913
  3  35  41   -150.13913
  3  62  44   -150.13913
  3  80  32   -150.13913
  3  89  20   -150.13913
  3  104  38   -150.13913
END PERIOD

BEGIN PERIOD 145
  3  29  50   -150.13792
  3  35  41   -150.13792
  3  62  44   -150.13792
  3  80  32   -150.13792
  3  89  20   -150.13792
  3  104  38   -150.13792
END PERIOD

BEGIN PERIOD 146
  3  29  50   -150.12354
  3  35  41   -150.12354
  3  62  44   -150.12354
  3  80  32   -150.12354
  3  89  20   -150.12354
  3  104  38   -150.12354
END PERIOD

BEGIN PERIOD 147
  3  29  50   -150.07611
  3  35  41   -150.07611
  3  62  44   -150.07611
  3  80  32   -150.07611
  3  89  20   -150.07611
  3  104  38   -150.07611
END PERIOD

BEGIN PERIOD 148
  3  29  50   -150.12907
  3  35  41   -150.12907
  3  62  44   -150.12907
  3  80  32   -150.12907
  3  89  20   -150.12907
  3  104  38   -150.12907
END PERIOD

BEGIN PERIOD 149
  3  29  50   -150.14500
  3  35  41   -150.14500
  3  62  44   -150.14500
  3  80  32   -150.14500
  3  89  20   -150.14500
  3  104  38   -150.14500
END PERIOD

BEGIN PERIOD 150
  3  29  50   -150.06084
  3  35  41   -150.06084
  3  62  44   -150.06084
  3  80  32   -150.06084
  3  89  20   -150.06084
  3  104  38   -150.06084
END PERIOD

BEGIN PERIOD 151
  3  29  50   -150.09923
  3  35  41   -150.09923
  3  62  44   -150.09923
  3  80  32   -150.09923
  3  89  20   -150.09923
  3  104  38   -150.09923
END PERIOD

BEGIN PERIOD 152
  3  29  50   -150.00552
  3  35  41   -150.00552
  3  62  44   -150.00552
  3  80  32   -150.00552
  3  89  20   -150.00552
  3  104  38   -150.00552
END PERIOD

BEGIN PERIOD 153
  3  29  50   -150.10260
  3  35  41   -150.10260
  3  62  44   -150.10260
  3  80  32   -150.10260
  3  89  20   -150.10260
  3  104  38   -150.10260
END PERIOD

BEGIN PERIOD 154
  3  29  50   -150.08107
  3  35  41   -150.08107
  3  62  44   -150.08107
  3  80  32   -150.08107
  3  89  20   -150.08107
  3  104  38   -150.08107
END PERIOD

BEGIN PERIOD 155
  3  29  50   -150.14207
  3  35  41   -150.14207
  3  62  44   -150.14207
  3  80  32   -150.14207
  3  89  20   -150.14207
  3  104  38   -150.14207
END PERIOD

BEGIN PERIOD 156
  3  29  50   -150.14390
  3  35  41   -150.14390
  3  62  44   -150.14390
  3  80  32   -150.14390
  3  89  20   -150.14390
  3  104  38   -150.14390
END PERIOD

BEGIN PERIOD 157
  3  29  50   -150.11922
  3  35  41   -150.11922
  3  62  44   -150.11922
  3  80  32   -150.11922
  3  89  20   -150.11922
  3  104  38   -150.11922
END PERIOD

BEGIN PERIOD 158
  3  29  50   -150.11734
  3  35  41   -150.11734
  3  62  44   -150.11734
  3  80  32   -150.11734
  3  89  20   -150.11734
  3  104  38   -150.11734
END PERIOD

BEGIN PERIOD 159
  3  29  50   -150.05916
  3  35  41   -150.05916
  3  62  44   -150.05916
  3  80  32   -150.05916
  3  89  20   -150.05916
  3  104  38   -150.05916
END PERIOD

BEGIN PERIOD 160
  3  29  50   -150.00227
  3  35  41   -150.00227
  3  62  44   -150.00227
  3  80  32   -150.00227
  3  89  20   -150.00227
  3  104  38   -150.00227
END PERIOD

BEGIN PERIOD 161
  3  29  50   -150.03581
  3  35  41   -150.03581
  3  62  44   -150.03581
  3  80  32   -150.03581
  3  89  20   -150.03581
  3  104  38   -150.03581
END PERIOD

BEGIN PERIOD 162
  3  29  50   -150.03159
  3  35  41   -150.03159
  3  62  44   -150.03159
  3  80  32   -150.03159
  3  89  20   -150.03159
  3  104  38   -150.03159
END PERIOD

BEGIN PERIOD 163
  3  29  50   -150.03839
  3  35  41   -150.03839
  3  62  44   -150.03839
  3  80  32   -150.03839
  3  89  20   -150.03839
  3  104  38   -150.03839
END PERIOD

BEGIN PERIOD 164
  3  29  50   -150.06467
  3  35  41   -150.06467
  3  62  44   -150.06467
  3  80  32   -150.06467
  3  89  20   -150.06467
  3  104  38   -150.06467
END PERIOD

BEGIN PERIOD 165
  3  29  50   -150.03952
  3  35  41   -150.03952
  3  62  44   -150.03952
  3  80  32   -150.03952
  3  89  20   -150.03952
  3  104  38   -150.03952
END PERIOD

BEGIN PERIOD 166
  3  29  50   -150.08680
  3  35  41   -150.08680
  3  62  44   -150.08680
  3  80  32   -150.08680
  3  89  20   -150.08680
  3  104  38   -150.08680
END PERIOD

BEGIN PERIOD 167
  3  29  50   -150.11649