# WEL6 input file, prepared by MF5to6 on 6/30/2020 at 16:30:18.

BEGIN Options
  PRINT_INPUT
  PRINT_FLOWS
  SAVE_FLOWS
END Options

BEGIN Dimensions
  MAXBOUND  6
END Dimensions

BEGIN PERIOD 1
  3  29  50   -150.00000
  3  35  41   -150.00000
  3  62  44   -150.00000
  3  80  32   -150.00000
  3  89  20   -150.00000
  3  104  38   -150.00000
END PERIOD

BEGIN PERIOD 2
  3  29  50   -150.07330
  3  35  41   -150.07330
  3  62  44   -150.07330
  3  80  32   -150.07330
  3  89  20   -150.07330
  3  104  38   -150.07330
END PERIOD

BEGIN PERIOD 3
  3  29  50   -150.14189
  3  35  41   -150.14189
  3  62  44   -150.14189
  3  80  32   -150.14189
  3  89  20   -150.14189
  3  104  38   -150.14189
END PERIOD

BEGIN PERIOD 4
  3  29  50   -150.04904
  3  35  41   -150.04904
  3  62  44   -150.04904
  3  80  32   -150.04904
  3  89  20   -150.04904
  3  104  38   -150.04904
END PERIOD

BEGIN PERIOD 5
  3  29  50   -150.01000
  3  35  41   -150.01000
  3  62  44   -150.01000
  3  80  32   -150.01000
  3  89  20   -150.01000
  3  104  38   -150.01000
END PERIOD

BEGIN PERIOD 6
  3  29  50   -150.08258
  3  35  41   -150.08258
  3  62  44   -150.08258
  3  80  32   -150.08258
  3  89  20   -150.08258
  3  104  38   -150.08258
END PERIOD

BEGIN PERIOD 7
  3  29  50   -150.04338
  3  35  41   -150.04338
  3  62  44   -150.04338
  3  80  32   -150.04338
  3  89  20   -150.04338
  3  104  38   -150.04338
END PERIOD

BEGIN PERIOD 8
  3  29  50   -150.03828
  3  35  41   -150.03828
  3  62  44   -150.03828
  3  80  32   -150.03828
  3  89  20   -150.03828
  3  104  38   -150.03828
END PERIOD

BEGIN PERIOD 9
  3  29  50   -150.03131
  3  35  41   -150.03131
  3  62  44   -150.03131
  3  80  32   -150.03131
  3  89  20   -150.03131
  3  104  38   -150.03131
END PERIOD

BEGIN PERIOD 10
  3  29  50   -150.13727
  3  35  41   -150.13727
  3  62  44   -150.13727
  3  80  32   -150.13727
  3  89  20   -150.13727
  3  104  38   -150.13727
END PERIOD

BEGIN PERIOD 11
  3  29  50   -150.06702
  3  35  41   -150.06702
  3  62  44   -150.06702
  3  80  32   -150.06702
  3  89  20   -150.06702
  3  104  38   -150.06702
END PERIOD

BEGIN PERIOD 12
  3  29  50   -150.03496
  3  35  41   -150.03496
  3  62  44   -150.03496
  3  80  32   -150.03496
  3  89  20   -150.03496
  3  104  38   -150.03496
END PERIOD

BEGIN PERIOD 13
  3  29  50   -150.10672
  3  35  41   -150.10672
  3  62  44   -150.10672
  3  80  32   -150.10672
  3  89  20   -150.10672
  3  104  38   -150.10672
END PERIOD

BEGIN PERIOD 14
  3  29  50   -150.06770
  3  35  41   -150.06770
  3  62  44   -150.06770
  3  80  32   -150.06770
  3  89  20   -150.06770
  3  104  38   -150.06770
END PERIOD

BEGIN PERIOD 15
  3  29  50   -150.12471
  3  35  41   -150.12471
  3  62  44   -150.12471
  3  80  32   -150.12471
  3  89  20   -150.12471
  3  104  38   -150.12471
END PERIOD

BEGIN PERIOD 16
  3  29  50   -150.09824
  3  35  41   -150.09824
  3  62  44   -150.09824
  3  80  32   -150.09824
  3  89  20   -150.09824
  3  104  38   -150.09824
END PERIOD

BEGIN PERIOD 17
  3  29  50   -150.09009
  3  35  41   -150.09009
  3  62  44   -150.09009
  3  80  32   -150.09009
  3  89  20   -150.09009
  3  104  38   -150.09009
END PERIOD

BEGIN PERIOD 18
  3  29  50   -150.00668
  3  35  41   -150.00668
  3  62  44   -150.00668
  3  80  32   -150.00668
  3  89  20   -150.00668
  3  104  38   -150.00668
END PERIOD

BEGIN PERIOD 19
  3  29  50   -150.10652
  3  35  41   -150.10652
  3  62  44   -150.10652
  3  80  32   -150.10652
  3  89  20   -150.10652
  3  104  38   -150.10652
END PERIOD

BEGIN PERIOD 20
  3  29  50   -150.13370
  3  35  41   -150.13370
  3  62  44   -150.13370
  3  80  32   -150.13370
  3  89  20   -150.13370
  3  104  38   -150.13370
END PERIOD

BEGIN PERIOD 21
  3  29  50   -150.04807
  3  35  41   -150.04807
  3  62  44   -150.04807
  3  80  32   -150.04807
  3  89  20   -150.04807
  3  104  38   -150.04807
END PERIOD

BEGIN PERIOD 22
  3  29  50   -150.11914
  3  35  41   -150.11914
  3  62  44   -150.11914
  3  80  32   -150.11914
  3  89  20   -150.11914
  3  104  38   -150.11914
END PERIOD

BEGIN PERIOD 23
  3  29  50   -150.09131
  3  35  41   -150.09131
  3  62  44   -150.09131
  3  80  32   -150.09131
  3  89  20   -150.09131
  3  104  38   -150.09131
END PERIOD

BEGIN PERIOD 24
  3  29  50   -150.00508
  3  35  41   -150.00508
  3  62  44   -150.00508
  3  80  32   -150.00508
  3  89  20   -150.00508
  3  104  38   -150.00508
END PERIOD

BEGIN PERIOD 25
  3  29  50   -150.14603
  3  35  41   -150.14603
  3  62  44   -150.14603
  3  80  32   -150.14603
  3  89  20   -150.14603
  3  104  38   -150.14603
END PERIOD

BEGIN PERIOD 26
  3  29  50   -150.04893
  3  35  41   -150.04893
  3  62  44   -150.04893
  3  80  32   -150.04893
  3  89  20   -150.04893
  3  104  38   -150.04893
END PERIOD

BEGIN PERIOD 27
  3  29  50   -150.01361
  3  35  41   -150.01361
  3  62  44   -150.01361
  3  80  32   -150.01361
  3  89  20   -150.01361
  3  104  38   -150.01361
END PERIOD

BEGIN PERIOD 28
  3  29  50   -150.09508
  3  35  41   -150.09508
  3  62  44   -150.09508
  3  80  32   -150.09508
  3  89  20   -150.09508
  3  104  38   -150.09508
END PERIOD

BEGIN PERIOD 29
  3  29  50   -150.06126
  3  35  41   -150.06126
  3  62  44   -150.06126
  3  80  32   -150.06126
  3  89  20   -150.06126
  3  104  38   -150.06126
END PERIOD

BEGIN PERIOD 30
  3  29  50   -150.07137
  3  35  41   -150.07137
  3  62  44   -150.07137
  3  80  32   -150.07137
  3  89  20   -150.07137
  3  104  38   -150.07137
END PERIOD

BEGIN PERIOD 31
  3  29  50   -150.08119
  3  35  41   -150.08119
  3  62  44   -150.08119
  3  80  32   -150.08119
  3  89  20   -150.08119
  3  104  38   -150.08119
END PERIOD

BEGIN PERIOD 32
  3  29  50   -150.12994
  3  35  41   -150.12994
  3  62  44   -150.12994
  3  80  32   -150.12994
  3  89  20   -150.12994
  3  104  38   -150.12994
END PERIOD

BEGIN PERIOD 33
  3  29  50   -150.08852
  3  35  41   -150.08852
  3  62  44   -150.08852
  3  80  32   -150.08852
  3  89  20   -150.08852
  3  104  38   -150.08852
END PERIOD

BEGIN PERIOD 34
  3  29  50   -150.02970
  3  35  41   -150.02970
  3  62  44   -150.02970
  3  80  32   -150.02970
  3  89  20   -150.02970
  3  104  38   -150.02970
END PERIOD

BEGIN PERIOD 35
  3  29  50   -150.11935
  3  35  41   -150.11935
  3  62  44   -150.11935
  3  80  32   -150.11935
  3  89  20   -150.11935
  3  104  38   -150.11935
END PERIOD

BEGIN PERIOD 36
  3  29  50   -150.14525
  3  35  41   -150.14525
  3  62  44   -150.14525
  3  80  32   -150.14525
  3  89  20   -150.14525
  3  104  38   -150.14525
END PERIOD

BEGIN PERIOD 37
  3  29  50   -150.11292
  3  35  41   -150.11292
  3  62  44   -150.11292
  3  80  32   -150.11292
  3  89  20   -150.11292
  3  104  38   -150.11292
END PERIOD

BEGIN PERIOD 38
  3  29  50   -150.07748
  3  35  41   -150.07748
  3  62  44   -150.07748
  3  80  32   -150.07748
  3  89  20   -150.07748
  3  104  38   -150.07748
END PERIOD

BEGIN PERIOD 39
  3  29  50   -150.04341
  3  35  41   -150.04341
  3  62  44   -150.04341
  3  80  32   -150.04341
  3  89  20   -150.04341
  3  104  38   -150.04341
END PERIOD

BEGIN PERIOD 40
  3  29  50   -150.07468
  3  35  41   -150.07468
  3  62  44   -150.07468
  3  80  32   -150.07468
  3  89  20   -150.07468
  3  104  38   -150.07468
END PERIOD

BEGIN PERIOD 41
  3  29  50   -150.02534
  3  35  41   -150.02534
  3  62  44   -150.02534
  3  80  32   -150.02534
  3  89  20   -150.02534
  3  104  38   -150.02534
END PERIOD

BEGIN PERIOD 42
  3  29  50   -150.11150
  3  35  41   -150.11150
  3  62  44   -150.11150
  3  80  32   -150.11150
  3  89  20   -150.11150
  3  104  38   -150.11150
END PERIOD

BEGIN PERIOD 43
  3  29  50   -150.07740
  3  35  41   -150.07740
  3  62  44   -150.07740
  3  80  32   -150.07740
  3  89  20   -150.07740
  3  104  38   -150.07740
END PERIOD

BEGIN PERIOD 44
  3  29  50   -150.11037
  3  35  41   -150.11037
  3  62  44   -150.11037
  3  80  32   -150.11037
  3  89  20   -150.11037
  3  104  38   -150.11037
END PERIOD

BEGIN PERIOD 45
  3  29  50   -150.06888
  3  35  41   -150.06888
  3  62  44   -150.06888
  3  80  32   -150.06888
  3  89  20   -150.06888
  3  104  38   -150.06888
END PERIOD

BEGIN PERIOD 46
  3  29  50   -150.13663
  3  35  41   -150.13663
  3  62  44   -150.13663
  3  80  32   -150.13663
  3  89  20   -150.13663
  3  104  38   -150.13663
END PERIOD

BEGIN PERIOD 47
  3  29  50   -150.04184
  3  35  41   -150.04184
  3  62  44   -150.04184
  3  80  32   -150.04184
  3  89  20   -150.04184
  3  104  38   -150.04184
END PERIOD

BEGIN PERIOD 48
  3  29  50   -150.13430
  3  35  41   -150.13430
  3  62  44   -150.13430
  3  80  32   -150.13430
  3  89  20   -150.13430
  3  104  38   -150.13430
END PERIOD

BEGIN PERIOD 49
  3  29  50   -150.01341
  3  35  41   -150.01341
  3  62  44   -150.01341
  3  80  32   -150.01341
  3  89  20   -150.01341
  3  104  38   -150.01341
END PERIOD

BEGIN PERIOD 50
  3  29  50   -150.08687
  3  35  41   -150.08687
  3  62  44   -150.08687
  3  80  32   -150.08687
  3  89  20   -150.08687
  3  104  38   -150.08687
END PERIOD

BEGIN PERIOD 51
  3  29  50   -150.06776
  3  35  41   -150.06776
  3  62  44   -150.06776
  3  80  32   -150.06776
  3  89  20   -150.06776
  3  104  38   -150.06776
END PERIOD

BEGIN PERIOD 52
  3  29  50   -150.08253
  3  35  41   -150.08253
  3  62  44   -150.08253
  3  80  32   -150.08253
  3  89  20   -150.08253
  3  104  38   -150.08253
END PERIOD

BEGIN PERIOD 53
  3  29  50   -150.01150
  3  35  41   -150.01150
  3  62  44   -150.01150
  3  80  32   -150.01150
  3  89  20   -150.01150
  3  104  38   -150.01150
END PERIOD

BEGIN PERIOD 54
  3  29  50   -150.01093
  3  35  41   -150.01093
  3  62  44   -150.01093
  3  80  32   -150.01093
  3  89  20   -150.01093
  3  104  38   -150.01093
END PERIOD

BEGIN PERIOD 55
  3  29  50   -150.09276
  3  35  41   -150.09276
  3  62  44   -150.09276
  3  80  32   -150.09276
  3  89  20   -150.09276
  3  104  38   -150.09276
END PERIOD

BEGIN PERIOD 56
  3  29  50   -150.07570
  3  35  41   -150.07570
  3  62  44   -150.07570
  3  80  32   -150.07570
  3  89  20   -150.07570
  3  104  38   -150.07570
END PERIOD

BEGIN PERIOD 57
  3  29  50   -150.01480
  3  35  41   -150.01480
  3  62  44   -150.01480
  3  80  32   -150.01480
  3  89  20   -150.01480
  3  104  38   -150.01480
END PERIOD

BEGIN PERIOD 58
  3  29  50   -150.12502
  3  35  41   -150.12502
  3  62  44   -150.12502
  3  80  32   -150.12502
  3  89  20   -150.12502
  3  104  38   -150.12502
END PERIOD

BEGIN PERIOD 59
  3  29  50   -150.12608
  3  35  41   -150.12608
  3  62  44   -150.12608
  3  80  32   -150.12608
  3  89  20   -150.12608
  3  104  38   -150.12608
END PERIOD

BEGIN PERIOD 60
  3  29  50   -150.12982
  3  35  41   -150.12982
  3  62  44   -150.12982
  3  80  32   -150.12982
  3  89  20   -150.12982
  3  104  38   -150.12982
END PERIOD

BEGIN PERIOD 61
  3  29  50   -150.11778
  3  35  41   -150.11778
  3  62  44   -150.11778
  3  80  32   -150.11778
  3  89  20   -150.11778
  3  104  38   -150.11778
END PERIOD

BEGIN PERIOD 62
  3  29  50   -150.11380
  3  35  41   -150.11380
  3  62  44   -150.11380
  3  80  32   -150.11380
  3  89  20   -150.11380
  3  104  38   -150.11380
END PERIOD

BEGIN PERIOD 63
  3  29  50   -150.06534
  3  35  41   -150.06534
  3  62  44   -150.06534
  3  80  32   -150.06534
  3  89  20   -150.06534
  3  104  38   -150.06534
END PERIOD

BEGIN PERIOD 64
  3  29  50   -150.00961
  3  35  41   -150.00961
  3  62  44   -150.00961
  3  80  32   -150.00961
  3  89  20   -150.00961
  3  104  38   -150.00961
END PERIOD

BEGIN PERIOD 65
  3  29  50   -150.11240
  3  35  41   -150.11240
  3  62  44   -150.11240
  3  80  32   -150.11240
  3  89  20   -150.11240
  3  104  38   -150.11240
END PERIOD

BEGIN PERIOD 66
  3  29  50   -150.08420
  3  35  41   -150.08420
  3  62  44   -150.08420
  3  80  32   -150.08420
  3  89  20   -150.08420
  3  104  38   -150.08420
END PERIOD

BEGIN PERIOD 67
  3  29  50   -150.02026
  3  35  41   -150.02026
  3  62  44   -150.02026
  3  80  32   -150.02026
  3  89  20   -150.02026
  3  104  38   -150.02026
END PERIOD

BEGIN PERIOD 68
  3  29  50   -150.13297
  3  35  41   -150.13297
  3  62  44   -150.13297
  3  80  32   -150.13297
  3  89  20   -150.13297
  3  104  38   -150.13297
END PERIOD

BEGIN PERIOD 69
  3  29  50   -150.00586
  3  35  41   -150.00586
  3  62  44   -150.00586
  3  80  32   -150.00586
  3  89  20   -150.00586
  3  104  38   -150.00586
END PERIOD

BEGIN PERIOD 70
  3  29  50   -150.12538
  3  35  41   -150.12538
  3  62  44   -150.12538
  3  80  32   -150.12538
  3  89  20   -150.12538
  3  104  38   -150.12538
END PERIOD

BEGIN PERIOD 71
  3  29  50   -150.01880
  3  35  41   -150.01880
  3  62  44   -150.01880
  3  80  32   -150.01880
  3  89  20   -150.01880
  3  104  38   -150.01880
END PERIOD

BEGIN PERIOD 72
  3  29  50   -150.04580
  3  35  41   -150.04580
  3  62  44   -150.04580
  3  80  32   -150.04580
  3  89  20   -150.04580
  3  104  38   -150.04580
END PERIOD

BEGIN PERIOD 73
  3  29  50   -150.04724
  3  35  41   -150.04724
  3  62  44   -150.04724
  3  80  32   -150.04724
  3  89  20   -150.04724
  3  104  38   -150.04724
END PERIOD

BEGIN PERIOD 74
  3  29  50   -150.07300
  3  35  41   -150.07300
  3  62  44   -150.07300
  3  80  32   -150.07300
  3  89  20   -150.07300
  3  104  38   -150.07300
END PERIOD

BEGIN PERIOD 75
  3  29  50   -150.14436
  3  35  41   -150.14436
  3  62  44   -150.14436
  3  80  32   -150.14436
  3  89  20   -150.14436
  3  104  38   -150.14436
END PERIOD

BEGIN PERIOD 76
  3  29  50   -150.08992
  3  35  41   -150.08992
  3  62  44   -150.08992
  3  80  32   -150.08992
  3  89  20   -150.08992
  3  104  38   -150.08992
END PERIOD

BEGIN PERIOD 77
  3  29  50   -150.14734
  3  35  41   -150.14734
  3  62  44   -150.14734
  3  80  32   -150.14734
  3  89  20   -150.14734
  3  104  38   -150.14734
END PERIOD

BEGIN PERIOD 78
  3  29  50   -150.13590
  3  35  41   -150.13590
  3  62  44   -150.13590
  3  80  32   -150.13590
  3  89  20   -150.13590
  3  104  38   -150.13590
END PERIOD

BEGIN PERIOD 79
  3  29  50   -150.09932
  3  35  41   -150.09932
  3  62  44   -150.09932
  3  80  32   -150.09932
  3  89  20   -150.09932
  3  104  38   -150.09932
END PERIOD

BEGIN PERIOD 80
  3  29  50   -150.08340
  3  35  41   -150.08340
  3  62  44   -150.08340
  3  80  32   -150.08340
  3  89  20   -150.08340
  3  104  38   -150.08340
END PERIOD

BEGIN PERIOD 81
  3  29  50   -150.05289
  3  35  41   -150.05289
  3  62  44   -150.05289
  3  80  32   -150.05289
  3  89  20   -150.05289
  3  104  38   -150.05289
END PERIOD

BEGIN PERIOD 82
  3  29  50   -150.14440
  3  35  41   -150.14440
  3  62  44   -150.14440
  3  80  32   -150.14440
  3  89  20   -150.14440
  3  104  38   -150.14440
END PERIOD

BEGIN PERIOD 83
  3  29  50   -150.05334
  3  35  41   -150.05334
  3  62  44   -150.05334
  3  80  32   -150.05334
  3  89  20   -150.05334
  3  104  38   -150.05334
END PERIOD

BEGIN PERIOD 84
  3  29  50   -150.12856
  3  35  41   -150.12856
  3  62  44   -150.12856
  3  80  32   -150.12856
  3  89  20   -150.12856
  3  104  38   -150.12856
END PERIOD

BEGIN PERIOD 85
  3  29  50   -150.06502
  3  35  41   -150.06502
  3  62  44   -150.06502
  3  80  32   -150.06502
  3  89  20   -150.06502
  3  104  38   -150.06502
END PERIOD

BEGIN PERIOD 86
  3  29  50   -150.09984
  3  35  41   -150.09984
  3  62  44   -150.09984
  3  80  32   -150.09984
  3  89  20   -150.09984
  3  104  38   -150.09984
END PERIOD

BEGIN PERIOD 87
  3  29  50   -150.00394
  3  35  41   -150.00394
  3  62  44   -150.00394
  3  80  32   -150.00394
  3  89  20   -150.00394
  3  104  38   -150.00394
END PERIOD

BEGIN PERIOD 88
  3  29  50   -150.04016
  3  35  41   -150.04016
  3  62  44   -150.04016
  3  80  32   -150.04016
  3  89  20   -150.04016
  3  104  38   -150.04016
END PERIOD

BEGIN PERIOD 89
  3  29  50   -150.02397
  3  35  41   -150.02397
  3  62  44   -150.02397
  3  80  32   -150.02397
  3  89  20   -150.02397
  3  104  38   -150.02397
END PERIOD

BEGIN PERIOD 90
  3  29  50   -150.03690
  3  35  41   -150.03690
  3  62  44   -150.03690
  3  80  32   -150.03690
  3  89  20   -150.03690
  3  104  38   -150.03690
END PERIOD

BEGIN PERIOD 91
  3  29  50   -150.09436
  3  35  41   -150.09436
  3  62  44   -150.09436
  3  80  32   -150.09436
  3  89  20   -150.09436
  3  104  38   -150.09436
END PERIOD

BEGIN PERIOD 92
  3  29  50   -150.02914
  3  35  41   -150.02914
  3  62  44   -150.02914
  3  80  32   -150.02914
  3  89  20   -150.02914
  3  104  38   -150.02914
END PERIOD

BEGIN PERIOD 93
  3  29  50   -150.05330
  3  35  41   -150.05330
  3  62  44   -150.05330
  3  80  32   -150.05330
  3  89  20   -150.05330
  3  104  38   -150.05330
END PERIOD

BEGIN PERIOD 94
  3  29  50   -150.02182
  3  35  41   -150.02182
  3  62  44   -150.02182
  3  80  32   -150.02182
  3  89  20   -150.02182
  3  104  38   -150.02182
END PERIOD

BEGIN PERIOD 95
  3  29  50   -150.09224
  3  35  41   -150.09224
  3  62  44   -150.09224
  3  80  32   -150.09224
  3  89  20   -150.09224
  3  104  38   -150.09224
END PERIOD

BEGIN PERIOD 96
  3  29  50   -150.14949
  3  35  41   -150.14949
  3  62  44   -150.14949
  3  80  32   -150.14949
  3  89  20   -150.14949
  3  104  38   -150.14949
END PERIOD

BEGIN PERIOD 97
  3  29  50   -150.14616
  3  35  41   -150.14616
  3  62  44   -150.14616
  3  80  32   -150.14616
  3  89  20   -150.14616
  3  104  38   -150.14616
END PERIOD

BEGIN PERIOD 98
  3  29  50   -150.05927
  3  35  41   -150.05927
  3  62  44   -150.05927
  3  80  32   -150.05927
  3  89  20   -150.05927
  3  104  38   -150.05927
END PERIOD

BEGIN PERIOD 99
  3  29  50   -150.12784
  3  35  41   -150.12784
  3  62  44   -150.12784
  3  80  32   -150.12784
  3  89  20   -150.12784
  3  104  38   -150.12784
END PERIOD

BEGIN PERIOD 100
  3  29  50   -150.03820
  3  35  41   -150.03820
  3  62  44   -150.03820
  3  80  32   -150.03820
  3  89  20   -150.03820
  3  104  38   -150.03820
END PERIOD

BEGIN PERIOD 101
  3  29  50   -150.00679
  3  35  41   -150.00679
  3  62  44   -150.00679
  3  80  32   -150.00679
  3  89  20   -150.00679
  3  104  38   -150.00679
END PERIOD

BEGIN PERIOD 102
  3  29  50   -150.13303
  3  35  41   -150.13303
  3  62  44   -150.13303
  3  80  32   -150.13303
  3  89  20   -150.13303
  3  104  38   -150.13303
END PERIOD

BEGIN PERIOD 103
  3  29  50   -150.07494
  3  35  41   -150.07494
  3  62  44   -150.07494
  3  80  32   -150.07494
  3  89  20   -150.07494
  3  104  38   -150.07494
END PERIOD

BEGIN PERIOD 104
  3  29  50   -150.08957
  3  35  41   -150.08957
  3  62  44   -150.08957
  3  80  32   -150.08957
  3  89  20   -150.08957
  3  104  38   -150.08957
END PERIOD

BEGIN PERIOD 105
  3  29  50   -150.03436
  3  35  41   -150.03436
  3  62  44   -150.03436
  3  80  32   -150.03436
  3  89  20   -150.03436
  3  104  38   -150.03436
END PERIOD

BEGIN PERIOD 106
  3  29  50   -150.04216
  3  35  41   -150.04216
  3  62  44   -150.04216
  3  80  32   -150.04216
  3  89  20   -150.04216
  3  104  38   -150.04216
END PERIOD

BEGIN PERIOD 107
  3  29  50   -150.06578
  3  35  41   -150.06578
  3  62  44   -150.06578
  3  80  32   -150.06578
  3  89  20   -150.06578
  3  104  38   -150.06578
END PERIOD

BEGIN PERIOD 108
  3  29  50   -150.04051
  3  35  41   -150.04051
  3  62  44   -150.04051
  3  80  32   -150.04051
  3  89  20   -150.04051
  3  104  38   -150.04051
END PERIOD

BEGIN PERIOD 109
  3  29  50   -150.04121
  3  35  41   -150.04121
  3  62  44   -150.04121
  3  80  32   -150.04121
  3  89  20   -150.04121
  3  104  38   -150.04121
END PERIOD

BEGIN PERIOD 110
  3  29  50   -150.05014
  3  35  41   -150.05014
  3  62  44   -150.05014
  3  80  32   -150.05014
  3  89  20   -150.05014
  3  104  38   -150.05014
END PERIOD

BEGIN PERIOD 111
  3  29  50   -150.09607
  3  35  41   -150.09607
  3  62  44   -150.09607
  3  80  32   -150.09607
  3  89  20   -150.09607
  3  104  38   -150.09607
END PERIOD

BEGIN PERIOD 112
  3  29  50   -150.05257
  3  35  41   -150.05257
  3  62  44   -150.05257
  3  80  32   -150.05257
  3  89  20   -150.05257
  3  104  38   -150.05257
END PERIOD

BEGIN PERIOD 113
  3  29  50   -150.13345
  3  35  41   -150.13345
  3  62  44   -150.13345
  3  80  32   -150.13345
  3  89  20   -150.13345
  3  104  38   -150.13345
END PERIOD

BEGIN PERIOD 114
  3  29  50   -150.07112
  3  35  41   -150.07112
  3  62  44   -150.07112
  3  80  32   -150.07112
  3  89  20   -150.07112
  3  104  38   -150.07112
END PERIOD

BEGIN PERIOD 115
  3  29  50   -150.07580
  3  35  41   -150.07580
  3  62  44   -150.07580
  3  80  32   -150.07580
  3  89  20   -150.07580
  3  104  38   -150.07580
END PERIOD

BEGIN PERIOD 116
  3  29  50   -150.13525
  3  35  41   -150.13525
  3  62  44   -150.13525
  3  80  32   -150.13525
  3  89  20   -150.13525
  3  104  38   -150.13525
END PERIOD

BEGIN PERIOD 117
  3  29  50   -150.04472
  3  35  41   -150.04472
  3  62  44   -150.04472
  3  80  32   -150.04472
  3  89  20   -150.04472
  3  104  38   -150.04472
END PERIOD

BEGIN PERIOD 118
  3  29  50   -150.06564
  3  35  41   -150.06564
  3  62  44   -150.06564
  3  80  32   -150.06564
  3  89  20   -150.06564
  3  104  38   -150.06564
END PERIOD

BEGIN PERIOD 119
  3  29  50   -150.06505
  3  35  41   -150.06505
  3  62  44   -150.06505
  3  80  32   -150.06505
  3  89  20   -150.06505
  3  104  38   -150.06505
END PERIOD

BEGIN PERIOD 120
  3  29  50   -150.13120
  3  35  41   -150.13120
  3  62  44   -150.13120
  3  80  32   -150.13120
  3  89  20   -150.13120
  3  104  38   -150.13120
END PERIOD

BEGIN PERIOD 121
  3  29  50   -150.02438
  3  35  41   -150.02438
  3  62  44   -150.02438
  3  80  32   -150.02438
  3  89  20   -150.02438
  3  104  38   -150.02438
END PERIOD

BEGIN PERIOD 122
  3  29  50   -150.00480
  3  35  41   -150.00480
  3  62  44   -150.00480
  3  80  32   -150.00480
  3  89  20   -150.00480
  3  104  38   -150.00480
END PERIOD

BEGIN PERIOD 123
  3  29  50   -150.02330
  3  35  41   -150.02330
  3  62  44   -150.02330
  3  80  32   -150.02330
  3  89  20   -150.02330
  3  104  38   -150.02330
END PERIOD

BEGIN PERIOD 124
  3  29  50   -150.03645
  3  35  41   -150.03645
  3  62  44   -150.03645
  3  80  32   -150.03645
  3  89  20   -150.03645
  3  104  38   -150.03645
END PERIOD

BEGIN PERIOD 125
  3  29  50   -150.08572
  3  35  41   -150.08572
  3  62  44   -150.08572
  3  80  32   -150.08572
  3  89  20   -150.08572
  3  104  38   -150.08572
END PERIOD

BEGIN PERIOD 126
  3  29  50   -150.00122
  3  35  41   -150.00122
  3  62  44   -150.00122
  3  80  32   -150.00122
  3  89  20   -150.00122
  3  104  38   -150.00122
END PERIOD

BEGIN PERIOD 127
  3  29  50   -150.06700
  3  35  41   -150.06700
  3  62  44   -150.06700
  3  80  32   -150.06700
  3  89  20   -150.06700
  3  104  38   -150.06700
END PERIOD

BEGIN PERIOD 128
  3  29  50   -150.04698
  3  35  41   -150.04698
  3  62  44   -150.04698
  3  80  32   -150.04698
  3  89  20   -150.04698
  3  104  38   -150.04698
END PERIOD

BEGIN PERIOD 129
  3  29  50   -150.04651
  3  35  41   -150.04651
  3  62  44   -150.04651
  3  80  32   -150.04651
  3  89  20   -150.04651
  3  104  38   -150.04651
END PERIOD

BEGIN PERIOD 130
  3  29  50   -150.06447
  3  35  41   -150.06447
  3  62  44   -150.06447
  3  80  32   -150.06447
  3  89  20   -150.06447
  3  104  38   -150.06447
END PERIOD

BEGIN PERIOD 131
  3  29  50   -150.11113
  3  35  41   -150.11113
  3  62  44   -150.11113
  3  80  32   -150.11113
  3  89  20   -150.11113
  3  104  38   -150.11113
END PERIOD

BEGIN PERIOD 132
  3  29  50   -150.02797
  3  35  41   -150.02797
  3  62  44   -150.02797
  3  80  32   -150.02797
  3  89  20   -150.02797
  3  104  38   -150.02797
END PERIOD

BEGIN PERIOD 133
  3  29  50   -150.12392
  3  35  41   -150.12392
  3  62  44   -150.12392
  3  80  32   -150.12392
  3  89  20   -150.12392
  3  104  38   -150.12392
END PERIOD

BEGIN PERIOD 134
  3  29  50   -150.14919
  3  35  41   -150.14919
  3  62  44   -150.14919
  3  80  32   -150.14919
  3  89  20   -150.14919
  3  104  38   -150.14919
END PERIOD

BEGIN PERIOD 135
  3  29  50   -150.03394
  3  35  41   -150.03394
  3  62  44   -150.03394
  3  80  32   -150.03394
  3  89  20   -150.03394
  3  104  38   -150.03394
END PERIOD

BEGIN PERIOD 136
  3  29  50   -150.09264
  3  35  41   -150.09264
  3  62  44   -150.09264
  3  80  32   -150.09264
  3  89  20   -150.09264
  3  104  38   -150.09264
END PERIOD

BEGIN PERIOD 137
  3  29  50   -150.09363
  3  35  41   -150.09363
  3  62  44   -150.09363
  3  80  32   -150.09363
  3  89  20   -150.09363
  3  104  38   -150.09363
END PERIOD

BEGIN PERIOD 138
  3  29  50   -150.13101
  3  35  41   -150.13101
  3  62  44   -150.13101
  3  80  32   -150.13101
  3  89  20   -150.13101
  3  104  38   -150.13101
END PERIOD

BEGIN PERIOD 139
  3  29  50   -150.09155
  3  35  41   -150.09155
  3  62  44   -150.09155
  3  80  32   -150.09155
  3  89  20   -150.09155
  3  104  38   -150.09155
END PERIOD

BEGIN PERIOD 140
  3  29  50   -150.12556
  3  35  41   -150.12556
  3  62  44   -150.12556
  3  80  32   -150.12556
  3  89  20   -150.12556
  3  104  38   -150.12556
END PERIOD

BEGIN PERIOD 141
  3  29  50   -150.12186
  3  35  41   -150.12186
  3  62  44   -150.12186
  3  80  32   -150.12186
  3  89  20   -150.12186
  3  104  38   -150.12186
END PERIOD

BEGIN PERIOD 142
  3  29  50   -150.05261
  3  35  41   -150.05261
  3  62  44   -150.05261
  3  80  32   -150.05261
  3  89  20   -150.05261
  3  104  38   -150.05261
END PERIOD

BEGIN PERIOD 143
  3  29  50   -150.07138
  3  35  41   -150.07138
  3  62  44   -150.07138
  3  80  32   -150.07138
  3  89  20   -150.07138
  3  104  38   -150.07138
END PERIOD

BEGIN PERIOD 144
  3  29  50   -150.11423
  3  35  41   -150.11423
  3  62  44   -150.11423
  3  80  32   -150.11423
  3  89  20   -150.11423
  3  104  38   -150.11423
END PERIOD

BEGIN PERIOD 145
  3  29  50   -150.11322
  3  35  41   -150.11322
  3  62  44   -150.11322
  3  80  32   -150.11322
  3  89  20   -150.11322
  3  104  38   -150.11322
END PERIOD

BEGIN PERIOD 146
  3  29  50   -150.05443
  3  35  41   -150.05443
  3  62  44   -150.05443
  3  80  32   -150.05443
  3  89  20   -150.05443
  3  104  38   -150.05443
END PERIOD

BEGIN PERIOD 147
  3  29  50   -150.04128
  3  35  41   -150.04128
  3  62  44   -150.04128
  3  80  32   -150.04128
  3  89  20   -150.04128
  3  104  38   -150.04128
END PERIOD

BEGIN PERIOD 148
  3  29  50   -150.00174
  3  35  41   -150.00174
  3  62  44   -150.00174
  3  80  32   -150.00174
  3  89  20   -150.00174
  3  104  38   -150.00174
END PERIOD

BEGIN PERIOD 149
  3  29  50   -150.03026
  3  35  41   -150.03026
  3  62  44   -150.03026
  3  80  32   -150.03026
  3  89  20   -150.03026
  3  104  38   -150.03026
END PERIOD

BEGIN PERIOD 150
  3  29  50   -150.00208
  3  35  41   -150.00208
  3  62  44   -150.00208
  3  80  32   -150.00208
  3  89  20   -150.00208
  3  104  38   -150.00208
END PERIOD

BEGIN PERIOD 151
  3  29  50   -150.03268
  3  35  41   -150.03268
  3  62  44   -150.03268
  3  80  32   -150.03268
  3  89  20   -150.03268
  3  104  38   -150.03268
END PERIOD

BEGIN PERIOD 152
  3  29  50   -150.14308
  3  35  41   -150.14308
  3  62  44   -150.14308
  3  80  32   -150.14308
  3  89  20   -150.14308
  3  104  38   -150.14308
END PERIOD

BEGIN PERIOD 153
  3  29  50   -150.11209
  3  35  41   -150.11209
  3  62  44   -150.11209
  3  80  32   -150.11209
  3  89  20   -150.11209
  3  104  38   -150.11209
END PERIOD

BEGIN PERIOD 154
  3  29  50   -150.05650
  3  35  41   -150.05650
  3  62  44   -150.05650
  3  80  32   -150.05650
  3  89  20   -150.05650
  3  104  38   -150.05650
END PERIOD

BEGIN PERIOD 155
  3  29  50   -150.02768
  3  35  41   -150.02768
  3  62  44   -150.02768
  3  80  32   -150.02768
  3  89  20   -150.02768
  3  104  38   -150.02768
END PERIOD

BEGIN PERIOD 156
  3  29  50   -150.09340
  3  35  41   -150.09340
  3  62  44   -150.09340
  3  80  32   -150.09340
  3  89  20   -150.09340
  3  104  38   -150.09340
END PERIOD

BEGIN PERIOD 157
  3  29  50   -150.14525
  3  35  41   -150.14525
  3  62  44   -150.14525
  3  80  32   -150.14525
  3  89  20   -150.14525
  3  104  38   -150.14525
END PERIOD

BEGIN PERIOD 158
  3  29  50   -150.13942
  3  35  41   -150.13942
  3  62  44   -150.13942
  3  80  32   -150.13942
  3  89  20   -150.13942
  3  104  38   -150.13942
END PERIOD

BEGIN PERIOD 159
  3  29  50   -150.12405
  3  35  41   -150.12405
  3  62  44   -150.12405
  3  80  32   -150.12405
  3  89  20   -150.12405
  3  104  38   -150.12405
END PERIOD

BEGIN PERIOD 160
  3  29  50   -150.04944
  3  35  41   -150.04944
  3  62  44   -150.04944
  3  80  32   -150.04944
  3  89  20   -150.04944
  3  104  38   -150.04944
END PERIOD

BEGIN PERIOD 161
  3  29  50   -150.05830
  3  35  41   -150.05830
  3  62  44   -150.05830
  3  80  32   -150.05830
  3  89  20   -150.05830
  3  104  38   -150.05830
END PERIOD

BEGIN PERIOD 162
  3  29  50   -150.08313
  3  35  41   -150.08313
  3  62  44   -150.08313
  3  80  32   -150.08313
  3  89  20   -150.08313
  3  104  38   -150.08313
END PERIOD

BEGIN PERIOD 163
  3  29  50   -150.09280
  3  35  41   -150.09280
  3  62  44   -150.09280
  3  80  32   -150.09280
  3  89  20   -150.09280
  3  104  38   -150.09280
END PERIOD

BEGIN PERIOD 164
  3  29  50   -150.06969
  3  35  41   -150.06969
  3  62  44   -150.06969
  3  80  32   -150.06969
  3  89  20   -150.06969
  3  104  38   -150.06969
END PERIOD

BEGIN PERIOD 165
  3  29  50   -150.02432
  3  35  41   -150.02432
  3  62  44   -150.02432
  3  80  32   -150.02432
  3  89  20   -150.02432
  3  104  38   -150.02432
END PERIOD

BEGIN PERIOD 166
  3  29  50   -150.01843
  3  35  41   -150.01843
  3  62  44   -150.01843
  3  80  32   -150.01843
  3  89  20   -150.01843
  3  104  38   -150.01843
END PERIOD

BEGIN PERIOD 167
  3  29  50   -150.12581