# RCH6 input file, prepared by MF5to6 on 6/30/2020 at 18:56:25.

BEGIN Options
  READASARRAYS
END Options

BEGIN PERIOD 1
  RECHARGE
    CONSTANT   0.10000000E-03
END PERIOD

BEGIN PERIOD 2
  RECHARGE
    CONSTANT   0.50317460E-04
END PERIOD

BEGIN PERIOD 3
  RECHARGE
    CONSTANT   0.51733330E-04
END PERIOD

BEGIN PERIOD 4
  RECHARGE
    CONSTANT   0.53186460E-04
END PERIOD

BEGIN PERIOD 5
  RECHARGE
    CONSTANT   0.54568300E-04
END PERIOD

BEGIN PERIOD 6
  RECHARGE
    CONSTANT   0.55970170E-04
END PERIOD

BEGIN PERIOD 7
  RECHARGE
    CONSTANT   0.57500170E-04
END PERIOD

BEGIN PERIOD 8
  RECHARGE
    CONSTANT   0.58958960E-04
END PERIOD

BEGIN PERIOD 9
  RECHARGE
    CONSTANT   0.60457410E-04
END PERIOD

BEGIN PERIOD 10
  RECHARGE
    CONSTANT   0.61898630E-04
END PERIOD

BEGIN PERIOD 11
  RECHARGE
    CONSTANT   0.63489180E-04
END PERIOD

BEGIN PERIOD 12
  RECHARGE
    CONSTANT   0.64975520E-04
END PERIOD

BEGIN PERIOD 13
  RECHARGE
    CONSTANT   0.66554440E-04
END PERIOD

BEGIN PERIOD 14
  RECHARGE
    CONSTANT   0.68086150E-04
END PERIOD

BEGIN PERIOD 15
  RECHARGE
    CONSTANT   0.69600680E-04
END PERIOD

BEGIN PERIOD 16
  RECHARGE
    CONSTANT   0.71105310E-04
END PERIOD

BEGIN PERIOD 17
  RECHARGE
    CONSTANT   0.72710850E-04
END PERIOD

BEGIN PERIOD 18
  RECHARGE
    CONSTANT   0.74359570E-04
END PERIOD

BEGIN PERIOD 19
  RECHARGE
    CONSTANT   0.75901560E-04
END PERIOD

BEGIN PERIOD 20
  RECHARGE
    CONSTANT   0.77431450E-04
END PERIOD

BEGIN PERIOD 21
  RECHARGE
    CONSTANT   0.79121930E-04
END PERIOD

BEGIN PERIOD 22
  RECHARGE
    CONSTANT   0.80732670E-04
END PERIOD

BEGIN PERIOD 23
  RECHARGE
    CONSTANT   0.82294500E-04
END PERIOD

BEGIN PERIOD 24
  RECHARGE
    CONSTANT   0.83781030E-04
END PERIOD

BEGIN PERIOD 25
  RECHARGE
    CONSTANT   0.85570040E-04
END PERIOD

BEGIN PERIOD 26
  RECHARGE
    CONSTANT   0.87177400E-04
END PERIOD

BEGIN PERIOD 27
  RECHARGE
    CONSTANT   0.88757170E-04
END PERIOD

BEGIN PERIOD 28
  RECHARGE
    CONSTANT   0.90381870E-04
END PERIOD

BEGIN PERIOD 29
  RECHARGE
    CONSTANT   0.91932470E-04
END PERIOD

BEGIN PERIOD 30
  RECHARGE
    CONSTANT   0.93708150E-04
END PERIOD

BEGIN PERIOD 31
  RECHARGE
    CONSTANT   0.95303950E-04
END PERIOD

BEGIN PERIOD 32
  RECHARGE
    CONSTANT   0.96979080E-04
END PERIOD

BEGIN PERIOD 33
  RECHARGE
    CONSTANT   0.98454570E-04
END PERIOD

BEGIN PERIOD 34
  RECHARGE
    CONSTANT   0.10030480E-03
END PERIOD

BEGIN PERIOD 35
  RECHARGE
    CONSTANT   0.10190220E-03
END PERIOD

BEGIN PERIOD 36
  RECHARGE
    CONSTANT   0.10364130E-03
END PERIOD

BEGIN PERIOD 37
  RECHARGE
    CONSTANT   0.10509440E-03
END PERIOD

BEGIN PERIOD 38
  RECHARGE
    CONSTANT   0.10681260E-03
END PERIOD

BEGIN PERIOD 39
  RECHARGE
    CONSTANT   0.10834050E-03
END PERIOD

BEGIN PERIOD 40
  RECHARGE
    CONSTANT   0.11009650E-03
END PERIOD

BEGIN PERIOD 41
  RECHARGE
    CONSTANT   0.11167520E-03
END PERIOD

BEGIN PERIOD 42
  RECHARGE
    CONSTANT   0.11330340E-03
END PERIOD

BEGIN PERIOD 43
  RECHARGE
    CONSTANT   0.11497320E-03
END PERIOD

BEGIN PERIOD 44
  RECHARGE
    CONSTANT   0.11662210E-03
END PERIOD

BEGIN PERIOD 45
  RECHARGE
    CONSTANT   0.11823970E-03
END PERIOD

BEGIN PERIOD 46
  RECHARGE
    CONSTANT   0.11972080E-03
END PERIOD

BEGIN PERIOD 47
  RECHARGE
    CONSTANT   0.12136820E-03
END PERIOD

BEGIN PERIOD 48
  RECHARGE
    CONSTANT   0.12284660E-03
END PERIOD

BEGIN PERIOD 49
  RECHARGE
    CONSTANT   0.12456030E-03
END PERIOD

BEGIN PERIOD 50
  RECHARGE
    CONSTANT   0.12615170E-03
END PERIOD

BEGIN PERIOD 51
  RECHARGE
    CONSTANT   0.12769670E-03
END PERIOD

BEGIN PERIOD 52
  RECHARGE
    CONSTANT   0.12928940E-03
END PERIOD

BEGIN PERIOD 53
  RECHARGE
    CONSTANT   0.13088840E-03
END PERIOD

BEGIN PERIOD 54
  RECHARGE
    CONSTANT   0.13231550E-03
END PERIOD

BEGIN PERIOD 55
  RECHARGE
    CONSTANT   0.13397990E-03
END PERIOD

BEGIN PERIOD 56
  RECHARGE
    CONSTANT   0.13539420E-03
END PERIOD

BEGIN PERIOD 57
  RECHARGE
    CONSTANT   0.13706140E-03
END PERIOD

BEGIN PERIOD 58
  RECHARGE
    CONSTANT   0.13864520E-03
END PERIOD

BEGIN PERIOD 59
  RECHARGE
    CONSTANT   0.13997380E-03
END PERIOD

BEGIN PERIOD 60
  RECHARGE
    CONSTANT   0.14144920E-03
END PERIOD

BEGIN PERIOD 61
  RECHARGE
    CONSTANT   0.14292150E-03
END PERIOD

BEGIN PERIOD 62
  RECHARGE
    CONSTANT   0.14432790E-03
END PERIOD

BEGIN PERIOD 63
  RECHARGE
    CONSTANT   0.14580840E-03
END PERIOD

BEGIN PERIOD 64
  RECHARGE
    CONSTANT   0.14724340E-03
END PERIOD

BEGIN PERIOD 65
  RECHARGE
    CONSTANT   0.14866380E-03
END PERIOD

BEGIN PERIOD 66
  RECHARGE
    CONSTANT   0.15017460E-03
END PERIOD

BEGIN PERIOD 67
  RECHARGE
    CONSTANT   0.15152640E-03
END PERIOD

BEGIN PERIOD 68
  RECHARGE
    CONSTANT   0.15288610E-03
END PERIOD

BEGIN PERIOD 69
  RECHARGE
    CONSTANT   0.15426040E-03
END PERIOD

BEGIN PERIOD 70
  RECHARGE
    CONSTANT   0.15556530E-03
END PERIOD

BEGIN PERIOD 71
  RECHARGE
    CONSTANT   0.15677460E-03
END PERIOD

BEGIN PERIOD 72
  RECHARGE
    CONSTANT   0.15814570E-03
END PERIOD

BEGIN PERIOD 73
  RECHARGE
    CONSTANT   0.15945900E-03
END PERIOD

BEGIN PERIOD 74
  RECHARGE
    CONSTANT   0.16082090E-03
END PERIOD

BEGIN PERIOD 75
  RECHARGE
    CONSTANT   0.16208020E-03
END PERIOD

BEGIN PERIOD 76
  RECHARGE
    CONSTANT   0.16339460E-03
END PERIOD

BEGIN PERIOD 77
  RECHARGE
    CONSTANT   0.16441260E-03
END PERIOD

BEGIN PERIOD 78
  RECHARGE
    CONSTANT   0.16566440E-03
END PERIOD

BEGIN PERIOD 79
  RECHARGE
    CONSTANT   0.16681830E-03
END PERIOD

BEGIN PERIOD 80
  RECHARGE
    CONSTANT   0.16815810E-03
END PERIOD

BEGIN PERIOD 81
  RECHARGE
    CONSTANT   0.16916290E-03
END PERIOD

BEGIN PERIOD 82
  RECHARGE
    CONSTANT   0.17036220E-03
END PERIOD

BEGIN PERIOD 83
  RECHARGE
    CONSTANT   0.17138520E-03
END PERIOD

BEGIN PERIOD 84
  RECHARGE
    CONSTANT   0.17227530E-03
END PERIOD

BEGIN PERIOD 85
  RECHARGE
    CONSTANT   0.17339890E-03
END PERIOD

BEGIN PERIOD 86
  RECHARGE
    CONSTANT   0.17450650E-03
END PERIOD

BEGIN PERIOD 87
  RECHARGE
    CONSTANT   0.17556210E-03
END PERIOD

BEGIN PERIOD 88
  RECHARGE
    CONSTANT   0.17646410E-03
END PERIOD

BEGIN PERIOD 89
  RECHARGE
    CONSTANT   0.17742880E-03
END PERIOD

BEGIN PERIOD 90
  RECHARGE
    CONSTANT   0.17851670E-03
END PERIOD

BEGIN PERIOD 91
  RECHARGE
    CONSTANT   0.17921820E-03
END PERIOD

BEGIN PERIOD 92
  RECHARGE
    CONSTANT   0.18022080E-03
END PERIOD

BEGIN PERIOD 93
  RECHARGE
    CONSTANT   0.18034040E-03
END PERIOD

BEGIN PERIOD 94
  RECHARGE
    CONSTANT   0.18134430E-03
END PERIOD

BEGIN PERIOD 95
  RECHARGE
    CONSTANT   0.18209970E-03
END PERIOD

BEGIN PERIOD 96
  RECHARGE
    CONSTANT   0.18304300E-03
END PERIOD

BEGIN PERIOD 97
  RECHARGE
    CONSTANT   0.18359690E-03
END PERIOD

BEGIN PERIOD 98
  RECHARGE
    CONSTANT   0.18437260E-03
END PERIOD

BEGIN PERIOD 99
  RECHARGE
    CONSTANT   0.18525070E-03
END PERIOD

BEGIN PERIOD 100
  RECHARGE
    CONSTANT   0.18583660E-03
END PERIOD

BEGIN PERIOD 101
  RECHARGE
    CONSTANT   0.18652190E-03
END PERIOD

BEGIN PERIOD 102
  RECHARGE
    CONSTANT   0.18740270E-03
END PERIOD

BEGIN PERIOD 103
  RECHARGE
    CONSTANT   0.18809350E-03
END PERIOD

BEGIN PERIOD 104
  RECHARGE
    CONSTANT   0.18849020E-03
END PERIOD

BEGIN PERIOD 105
  RECHARGE
    CONSTANT   0.18929000E-03
END PERIOD

BEGIN PERIOD 106
  RECHARGE
    CONSTANT   0.18969920E-03
END PERIOD

BEGIN PERIOD 107
  RECHARGE
    CONSTANT   0.19003780E-03
END PERIOD

BEGIN PERIOD 108
  RECHARGE
    CONSTANT   0.19080490E-03
END PERIOD

BEGIN PERIOD 109
  RECHARGE
    CONSTANT   0.19137320E-03
END PERIOD

BEGIN PERIOD 110
  RECHARGE
    CONSTANT   0.19176550E-03
END PERIOD

BEGIN PERIOD 111
  RECHARGE
    CONSTANT   0.19231670E-03
END PERIOD

BEGIN PERIOD 112
  RECHARGE
    CONSTANT   0.19264640E-03
END PERIOD

BEGIN PERIOD 113
  RECHARGE
    CONSTANT   0.19294050E-03
END PERIOD

BEGIN PERIOD 114
  RECHARGE
    CONSTANT   0.19338110E-03
END PERIOD

BEGIN PERIOD 115
  RECHARGE
    CONSTANT   0.19335840E-03
END PERIOD

BEGIN PERIOD 116
  RECHARGE
    CONSTANT   0.19390340E-03
END PERIOD

BEGIN PERIOD 117
  RECHARGE
    CONSTANT   0.19424330E-03
END PERIOD

BEGIN PERIOD 118
  RECHARGE
    CONSTANT   0.19458350E-03
END PERIOD

BEGIN PERIOD 119
  RECHARGE
    CONSTANT   0.19463020E-03
END PERIOD

BEGIN PERIOD 120
  RECHARGE
    CONSTANT   0.19469460E-03
END PERIOD

BEGIN PERIOD 121
  RECHARGE
    CONSTANT   0.19481480E-03
END PERIOD

BEGIN PERIOD 122
  RECHARGE
    CONSTANT   0.19510850E-03
END PERIOD

BEGIN PERIOD 123
  RECHARGE
    CONSTANT   0.19524190E-03
END PERIOD

BEGIN PERIOD 124
  RECHARGE
    CONSTANT   0.19540680E-03
END PERIOD

BEGIN PERIOD 125
  RECHARGE
    CONSTANT   0.19537790E-03
END PERIOD

BEGIN PERIOD 126
  RECHARGE
    CONSTANT   0.19534560E-03
END PERIOD

BEGIN PERIOD 127
  RECHARGE
    CONSTANT   0.19544670E-03
END PERIOD

BEGIN PERIOD 128
  RECHARGE
    CONSTANT   0.19535450E-03
END PERIOD

BEGIN PERIOD 129
  RECHARGE
    CONSTANT   0.19551580E-03
END PERIOD

BEGIN PERIOD 130
  RECHARGE
    CONSTANT   0.19514840E-03
END PERIOD

BEGIN PERIOD 131
  RECHARGE
    CONSTANT   0.19489720E-03
END PERIOD

BEGIN PERIOD 132
  RECHARGE
    CONSTANT   0.19468410E-03
END PERIOD

BEGIN PERIOD 133
  RECHARGE
    CONSTANT   0.19481750E-03
END PERIOD

BEGIN PERIOD 134
  RECHARGE
    CONSTANT   0.19460850E-03
END PERIOD

BEGIN PERIOD 135
  RECHARGE
    CONSTANT   0.19432520E-03
END PERIOD

BEGIN PERIOD 136
  RECHARGE
    CONSTANT   0.19405940E-03
END PERIOD

BEGIN PERIOD 137
  RECHARGE
    CONSTANT   0.19370810E-03
END PERIOD

BEGIN PERIOD 138
  RECHARGE
    CONSTANT   0.19334100E-03
END PERIOD

BEGIN PERIOD 139
  RECHARGE
    CONSTANT   0.19304850E-03
END PERIOD

BEGIN PERIOD 140
  RECHARGE
    CONSTANT   0.19272050E-03
END PERIOD

BEGIN PERIOD 141
  RECHARGE
    CONSTANT   0.19234720E-03
END PERIOD

BEGIN PERIOD 142
  RECHARGE
    CONSTANT   0.19175870E-03
END PERIOD

BEGIN PERIOD 143
  RECHARGE
    CONSTANT   0.19134900E-03
END PERIOD

BEGIN PERIOD 144
  RECHARGE
    CONSTANT   0.19106400E-03
END PERIOD

BEGIN PERIOD 145
  RECHARGE
    CONSTANT   0.19019700E-03
END PERIOD

BEGIN PERIOD 146
  RECHARGE
    CONSTANT   0.18979250E-03
END PERIOD

BEGIN PERIOD 147
  RECHARGE
    CONSTANT   0.18919960E-03
END PERIOD

BEGIN PERIOD 148
  RECHARGE
    CONSTANT   0.18868130E-03
END PERIOD

BEGIN PERIOD 149
  RECHARGE
    CONSTANT   0.18805590E-03
END PERIOD

BEGIN PERIOD 150
  RECHARGE
    CONSTANT   0.18746640E-03
END PERIOD

BEGIN PERIOD 151
  RECHARGE
    CONSTANT   0.18676170E-03
END PERIOD

BEGIN PERIOD 152
  RECHARGE
    CONSTANT   0.18614110E-03
END PERIOD

BEGIN PERIOD 153
  RECHARGE
    CONSTANT   0.18523230E-03
END PERIOD

BEGIN PERIOD 154
  RECHARGE
    CONSTANT   0.18474690E-03
END PERIOD

BEGIN PERIOD 155
  RECHARGE
    CONSTANT   0.18383910E-03
END PERIOD

BEGIN PERIOD 156
  RECHARGE
    CONSTANT   0.18289780E-03
END PERIOD

BEGIN PERIOD 157
  RECHARGE
    CONSTANT   0.18223770E-03
END PERIOD

BEGIN PERIOD 158
  RECHARGE
    CONSTANT   0.18139740E-03
END PERIOD

BEGIN PERIOD 159
  RECHARGE
    CONSTANT   0.18039930E-03
END PERIOD

BEGIN PERIOD 160
  RECHARGE
    CONSTANT   0.17973300E-03
END PERIOD

BEGIN PERIOD 161
  RECHARGE
    CONSTANT   0.17873350E-03
END PERIOD

BEGIN PERIOD 162
  RECHARGE
    CONSTANT   0.17770680E-03
END PERIOD

BEGIN PERIOD 163
  RECHARGE
    CONSTANT   0.17653670E-03
END PERIOD

BEGIN PERIOD 164
  RECHARGE
    CONSTANT   0.17564470E-03
END PERIOD

BEGIN PERIOD 165
  RECHARGE
    CONSTANT   0.17478100E-03
END PERIOD

BEGIN PERIOD 166
  RECHARGE
    CONSTANT   0.17391370E-03
END PERIOD

BEGIN PERIOD 167
  RECHARGE
    CONSTANT   0.17266140E-03
END PERIOD

BEGIN PERIOD 168
  RECHARGE
    CONSTANT   0.17179870E-03
END PERIOD

BEGIN PERIOD 169
  RECHARGE
    CONSTANT   0.17055440E-03
END PERIOD

BEGIN PERIOD 170
  RECHARGE
    CONSTANT   0.16954280E-03
END PERIOD

BEGIN PERIOD 171
  RECHARGE
    CONSTANT   0.16841790E-03
END PERIOD

BEGIN PERIOD 172
  RECHARGE
    CONSTANT   0.16712600E-03
END PERIOD

BEGIN PERIOD 173
  RECHARGE
    CONSTANT   0.16602910E-03
END PERIOD

BEGIN PERIOD 174
  RECHARGE
    CONSTANT   0.16480370E-03
END PERIOD

BEGIN PERIOD 175
  RECHARGE
    CONSTANT   0.16350480E-03
END PERIOD

BEGIN PERIOD 176
  RECHARGE
    CONSTANT   0.16233550E-03
END PERIOD

BEGIN PERIOD 177
  RECHARGE
    CONSTANT   0.16095480E-03
END PERIOD

BEGIN PERIOD 178
  RECHARGE
    CONSTANT   0.15961420E-03
END PERIOD

BEGIN PERIOD 179
  RECHARGE
    CONSTANT   0.15856800E-03
END PERIOD

BEGIN PERIOD 180
  RECHARGE
    CONSTANT   0.15728470E-03
END PERIOD

BEGIN PERIOD 181
  RECHARGE
    CONSTANT   0.15593970E-03
END PERIOD

BEGIN PERIOD 182
  RECHARGE
    CONSTANT   0.15448110E-03
END PERIOD

BEGIN PERIOD 183
  RECHARGE
    CONSTANT   0.15305540E-03
END PERIOD

BEGIN PERIOD 184
  RECHARGE
    CONSTANT   0.15179510E-03
END PERIOD

BEGIN PERIOD 185
  RECHARGE
    CONSTANT   0.15056540E-03
END PERIOD

BEGIN PERIOD 186
  RECHARGE
    CONSTANT   0.14889020E-03
END PERIOD

BEGIN PERIOD 187
  RECHARGE
    CONSTANT   0.14746730E-03
END PERIOD

BEGIN PERIOD 188
  RECHARGE
    CONSTANT   0.14622120E-03
END PERIOD

BEGIN PERIOD 189
  RECHARGE
    CONSTANT   0.14466790E-03
END PERIOD

BEGIN PERIOD 190
  RECHARGE
    CONSTANT   0.14337010E-03
END PERIOD

BEGIN PERIOD 191
  RECHARGE
    CONSTANT   0.14187980E-03
END PERIOD

BEGIN PERIOD 192
  RECHARGE
    CONSTANT   0.14020960E-03
END PERIOD

BEGIN PERIOD 193
  RECHARGE
    CONSTANT   0.13872170E-03
END PERIOD

BEGIN PERIOD 194
  RECHARGE
    CONSTANT   0.13725700E-03
END PERIOD

BEGIN PERIOD 195
  RECHARGE
    CONSTANT   0.13578860E-03
END PERIOD

BEGIN PERIOD 196
  RECHARGE
    CONSTANT   0.13422470E-03
END PERIOD

BEGIN PERIOD 197
  RECHARGE
    CONSTANT   0.13275520E-03
END PERIOD

BEGIN PERIOD 198
  RECHARGE
    CONSTANT   0.13110940E-03
END PERIOD

BEGIN PERIOD 199
  RECHARGE
    CONSTANT   0.12961460E-03
END PERIOD

BEGIN PERIOD 200
  RECHARGE
    CONSTANT   0.12816470E-03
END PERIOD

BEGIN PERIOD 201
  RECHARGE
    CONSTANT   0.12653370E-03
END PERIOD

BEGIN PERIOD 202
  RECHARGE
    CONSTANT   0.12488010E-03
END PERIOD

BEGIN PERIOD 203
  RECHARGE
    CONSTANT   0.12350480E-03
END PERIOD

BEGIN PERIOD 204
  RECHARGE
    CONSTANT   0.12163010E-03
END PERIOD

BEGIN PERIOD 205
  RECHARGE
    CONSTANT   0.12005060E-03
END PERIOD

BEGIN PERIOD 206
  RECHARGE
    CONSTANT   0.11859950E-03
END PERIOD

BEGIN PERIOD 207
  RECHARGE
    CONSTANT   0.11697820E-03
END PERIOD

BEGIN PERIOD 208
  RECHARGE
    CONSTANT   0.11535790E-03
END PERIOD

BEGIN PERIOD 209
  RECHARGE
    CONSTANT   0.11368840E-03
END PERIOD

BEGIN PERIOD 210
  RECHARGE
    CONSTANT   0.11207100E-03
END PERIOD

BEGIN PERIOD 211
  RECHARGE
    CONSTANT   0.11043260E-03
END PERIOD

BEGIN PERIOD 212
  RECHARGE
    CONSTANT   0.10885260E-03
END PERIOD

BEGIN PERIOD 213
  RECHARGE
    CONSTANT   0.10716610E-03
END PERIOD

BEGIN PERIOD 214
  RECHARGE
    CONSTANT   0.10556670E-03
END PERIOD

BEGIN PERIOD 215
  RECHARGE
    CONSTANT   0.10399910E-03
END PERIOD

BEGIN PERIOD 216
  RECHARGE
    CONSTANT   0.10227770E-03
END PERIOD

BEGIN PERIOD 217
  RECHARGE
    CONSTANT   0.10054580E-03
END PERIOD

BEGIN PERIOD 218
  RECHARGE
    CONSTANT   0.99010050E-04
END PERIOD

BEGIN PERIOD 219
  RECHARGE
    CONSTANT   0.97280430E-04
END PERIOD

BEGIN PERIOD 220
  RECHARGE
    CONSTANT   0.95778300E-04
END PERIOD

BEGIN PERIOD 221
  RECHARGE
    CONSTANT   0.93985510E-04
END PERIOD

BEGIN PERIOD 222
  RECHARGE
    CONSTANT   0.92338270E-04
END PERIOD

BEGIN PERIOD 223
  RECHARGE
    CONSTANT   0.90817150E-04
END PERIOD

BEGIN PERIOD 224
  RECHARGE
    CONSTANT   0.89148770E-04
END PERIOD

BEGIN PERIOD 225
  RECHARGE
    CONSTANT   0.87560290E-04
END PERIOD

BEGIN PERIOD 226
  RECHARGE
    CONSTANT   0.85760380E-04
END PERIOD

BEGIN PERIOD 227
  RECHARGE
    CONSTANT   0.84313550E-04
END PERIOD

BEGIN PERIOD 228
  RECHARGE
    CONSTANT   0.82689960E-04
END PERIOD

BEGIN PERIOD 229
  RECHARGE
    CONSTANT   0.81015630E-04
END PERIOD

BEGIN PERIOD 230
  RECHARGE
    CONSTANT   0.79437230E-04
END PERIOD

BEGIN PERIOD 231
  RECHARGE
    CONSTANT   0.77889230E-04
END PERIOD

BEGIN PERIOD 232
  RECHARGE
    CONSTANT   0.76213070E-04
END PERIOD

BEGIN PERIOD 233
  RECHARGE
    CONSTANT   0.74693680E-04
END PERIOD

BEGIN PERIOD 234
  RECHARGE
    CONSTANT   0.73134660E-04
END PERIOD

BEGIN PERIOD 235
  RECHARGE
    CONSTANT   0.71504540E-04
END PERIOD

BEGIN PERIOD 236
  RECHARGE
    CONSTANT   0.69937410E-04
END PERIOD

BEGIN PERIOD 237
  RECHARGE
    CONSTANT   0.68435850E-04
END PERIOD

BEGIN PERIOD 238
  RECHARGE
    CONSTANT   0.66900010E-04
END PERIOD

BEGIN PERIOD 239
  RECHARGE
    CONSTANT   0.65373970E-04
END PERIOD

BEGIN PERIOD 240
  RECHARGE
    CONSTANT   0.63757910E-04
END PERIOD

BEGIN PERIOD 241
  RECHARGE
    CONSTANT   0.62259420E-04
END PERIOD

BEGIN PERIOD 242
  RECHARGE
    CONSTANT   0.60731210E-04
END PERIOD

BEGIN PERIOD 243
  RECHARGE
    CONSTANT   0.59309470E-04
END PERIOD

BEGIN PERIOD 244
  RECHARGE
    CONSTANT   0.57816280E-04
END PERIOD

BEGIN PERIOD 245
  RECHARGE
    CONSTANT   0.56387830E-04
END PERIOD

BEGIN PERIOD 246
  RECHARGE
    CONSTANT   0.54869170E-04
END PERIOD

BEGIN PERIOD 247
  RECHARGE
    CONSTANT   0.53507760E-04
END PERIOD

BEGIN PERIOD 248
  RECHARGE
    CONSTANT   0.52054410E-04
END PERIOD

BEGIN PERIOD 249
  RECHARGE
    CONSTANT   0.50673850E-04
END PERIOD

BEGIN PERIOD 250
  RECHARGE
    CONSTANT   0.49277930E-04
END PERIOD

BEGIN PERIOD 251
  RECHARGE
    CONSTANT   0.47922000E-04
END PERIOD

BEGIN PERIOD 252
  RECHARGE
    CONSTANT   0.46483210E-04
END PERIOD

BEGIN PERIOD 253
  RECHARGE
    CONSTANT   0.45132360E-04
END PERIOD

BEGIN PERIOD 254
  RECHARGE
    CONSTANT   0.43804910E-04
END PERIOD

BEGIN PERIOD 255
  RECHARGE
    CONSTANT   0.42523160E-04
END PERIOD

BEGIN PERIOD 256
  RECHARGE
    CONSTANT   0.41227690E-04
END PERIOD

BEGIN PERIOD 257
  RECHARGE
    CONSTANT   0.39944900E-04
END PERIOD

BEGIN PERIOD 258
  RECHARGE
    CONSTANT   0.38717830E-04
END PERIOD

BEGIN PERIOD 259
  RECHARGE
    CONSTANT   0.37426610E-04
END PERIOD

BEGIN PERIOD 260
  RECHARGE
    CONSTANT   0.36215820E-04
END PERIOD

BEGIN PERIOD 261
  RECHARGE
    CONSTANT   0.34981480E-04
END PERIOD

BEGIN PERIOD 262
  RECHARGE
    CONSTANT   0.33827650E-04
END PERIOD

BEGIN PERIOD 263
  RECHARGE
    CONSTANT   0.32653220E-04
END PERIOD

BEGIN PERIOD 264
  RECHARGE
    CONSTANT   0.31516960E-04
END PERIOD

BEGIN PERIOD 265
  RECHARGE
    CONSTANT   0.30389240E-04
END PERIOD

BEGIN PERIOD 266
  RECHARGE
    CONSTANT   0.29286220E-04
END PERIOD

BEGIN PERIOD 267
  RECHARGE
    CONSTANT   0.28229210E-04
END PERIOD

BEGIN PERIOD 268
  RECHARGE
    CONSTANT   0.27144390E-04
END PERIOD

BEGIN PERIOD 269
  RECHARGE
    CONSTANT   0.26098670E-04
END PERIOD

BEGIN PERIOD 270
  RECHARGE
    CONSTANT   0.25063310E-04
END PERIOD

BEGIN PERIOD 271
  RECHARGE
    CONSTANT   0.24087810E-04
END PERIOD

BEGIN PERIOD 272
  RECHARGE
    CONSTANT   0.23085960E-04
END PERIOD

BEGIN PERIOD 273
  RECHARGE
    CONSTANT   0.22164980E-04
END PERIOD

BEGIN PERIOD 274
  RECHARGE
    CONSTANT   0.21235310E-04
END PERIOD

BEGIN PERIOD 275
  RECHARGE
    CONSTANT   0.20323240E-04
END PERIOD

BEGIN PERIOD 276
  RECHARGE
    CONSTANT   0.19422990E-04
END PERIOD

BEGIN PERIOD 277
  RECHARGE
    CONSTANT   0.18573980E-04
END PERIOD

BEGIN PERIOD 278
  RECHARGE
    CONSTANT   0.17766530E-04
END PERIOD

BEGIN PERIOD 279
  RECHARGE
    CONSTANT   0.16946790E-04
END PERIOD

BEGIN PERIOD 280
  RECHARGE
    CONSTANT   0.16166270E-04
END PERIOD

BEGIN PERIOD 281
  RECHARGE
    CONSTANT   0.15409780E-04
END PERIOD

BEGIN PERIOD 282
  RECHARGE
    CONSTANT   0.14653210E-04
END PERIOD

BEGIN PERIOD 283
  RECHARGE
    CONSTANT   0.13962820E-04
END PERIOD

BEGIN PERIOD 284
  RECHARGE
    CONSTANT   0.13271100E-04
END PERIOD

BEGIN PERIOD 285
  RECHARGE
    CONSTANT   0.12634170E-04
END PERIOD

BEGIN PERIOD 286
  RECHARGE
    CONSTANT   0.11996510E-04
END PERIOD

BEGIN PERIOD 287
  RECHARGE
    CONSTANT   0.11395230E-04
END PERIOD

BEGIN PERIOD 288
  RECHARGE
    CONSTANT   0.10807950E-04
END PERIOD

BEGIN PERIOD 289
  RECHARGE
    CONSTANT   0.10266890E-04
END PERIOD

BEGIN PERIOD 290
  RECHARGE
    CONSTANT   0.97358920E-05
END PERIOD

BEGIN PERIOD 291
  RECHARGE
    CONSTANT   0.92430000E-05
END PERIOD

BEGIN PERIOD 292
  RECHARGE
    CONSTANT   0.87751130E-05
END PERIOD

BEGIN PERIOD 293
  RECHARGE
    CONSTANT   0.83360660E-05
END PERIOD

BEGIN PERIOD 294
  RECHARGE
    CONSTANT   0.79152460E-05
END PERIOD

BEGIN PERIOD 295
  RECHARGE
    CONSTANT   0.75159800E-05
END PERIOD

BEGIN PERIOD 296
  RECHARGE
    CONSTANT   0.71650620E-05
END PERIOD

BEGIN PERIOD 297
  RECHARGE
    CONSTANT   0.68359800E-05
END PERIOD

BEGIN PERIOD 298
  RECHARGE
    CONSTANT   0.65244140E-05
END PERIOD

BEGIN PERIOD 299
  RECHARGE
    CONSTANT   0.62493760E-05
END PERIOD

BEGIN PERIOD 300
  RECHARGE
    CONSTANT   0.59999890E-05
END PERIOD

BEGIN PERIOD 301
  RECHARGE
    CONSTANT   0.57770070E-05
END PERIOD

BEGIN PERIOD 302
  RECHARGE
    CONSTANT   0.55827340E-05
END PERIOD

BEGIN PERIOD 303
  RECHARGE
    CONSTANT   0.54205140E-05
END PERIOD

BEGIN PERIOD 304
  RECHARGE
    CONSTANT   0.52836450E-05
END PERIOD

BEGIN PERIOD 305
  RECHARGE
    CONSTANT   0.51690680E-05
END PERIOD

BEGIN PERIOD 306
  RECHARGE
    CONSTANT   0.50920710E-05
END PERIOD

BEGIN PERIOD 307
  RECHARGE
    CONSTANT   0.50349600E-05
END PERIOD

BEGIN PERIOD 308
  RECHARGE
    CONSTANT   0.50165010E-05
END PERIOD

BEGIN PERIOD 309
  RECHARGE
    CONSTANT   0.50114730E-05
END PERIOD

BEGIN PERIOD 310
  RECHARGE
    CONSTANT   0.50484760E-05
END PERIOD

BEGIN PERIOD 311
  RECHARGE
    CONSTANT   0.51062750E-05
END PERIOD

BEGIN PERIOD 312
  RECHARGE
    CONSTANT   0.51987690E-05
END PERIOD

BEGIN PERIOD 313
  RECHARGE
    CONSTANT   0.53127180E-05
END PERIOD

BEGIN PERIOD 314
  RECHARGE
    CONSTANT   0.54557320E-05
END PERIOD

BEGIN PERIOD 315
  RECHARGE
    CONSTANT   0.56386270E-05
END PERIOD

BEGIN PERIOD 316
  RECHARGE
    CONSTANT   0.58323540E-05
END PERIOD

BEGIN PERIOD 317
  RECHARGE
    CONSTANT   0.60657840E-05
END PERIOD

BEGIN PERIOD 318
  RECHARGE
    CONSTANT   0.63263040E-05
END PERIOD

BEGIN PERIOD 319
  RECHARGE
    CONSTANT   0.66074590E-05
END PERIOD

BEGIN PERIOD 320
  RECHARGE
    CONSTANT   0.69191040E-05
END PERIOD

BEGIN PERIOD 321
  RECHARGE
    CONSTANT   0.72583620E-05
END PERIOD

BEGIN PERIOD 322
  RECHARGE
    CONSTANT   0.76277960E-05
END PERIOD

BEGIN PERIOD 323
  RECHARGE
    CONSTANT   0.80265120E-05
END PERIOD

BEGIN PERIOD 324
  RECHARGE
    CONSTANT   0.84469030E-05
END PERIOD

BEGIN PERIOD 325
  RECHARGE
    CONSTANT   0.89033360E-05
END PERIOD

BEGIN PERIOD 326
  RECHARGE
    CONSTANT   0.93776290E-05
END PERIOD

BEGIN PERIOD 327
  RECHARGE
    CONSTANT   0.98706790E-05
END PERIOD

BEGIN PERIOD 328
  RECHARGE
    CONSTANT   0.10418790E-04
END PERIOD

BEGIN PERIOD 329
  RECHARGE
    CONSTANT   0.10963530E-04
END PERIOD

BEGIN PERIOD 330
  RECHARGE
    CONSTANT   0.11549940E-04
END PERIOD

BEGIN PERIOD 331
  RECHARGE
    CONSTANT   0.12166690E-04
END PERIOD

BEGIN PERIOD 332
  RECHARGE
    CONSTANT   0.12812040E-04
END PERIOD

BEGIN PERIOD 333
  RECHARGE
    CONSTANT   0.13471620E-04
END PERIOD

BEGIN PERIOD 334
  RECHARGE
    CONSTANT   0.14147910E-04
END PERIOD

BEGIN PERIOD 335
  RECHARGE
    CONSTANT   0.14869590E-04
END PERIOD

BEGIN PERIOD 336
  RECHARGE
    CONSTANT   0.15622020E-04
END PERIOD

BEGIN PERIOD 337
  RECHARGE
    CONSTANT   0.16366450E-04
END PERIOD

BEGIN PERIOD 338
  RECHARGE
    CONSTANT   0.17162820E-04
END PERIOD

BEGIN PERIOD 339
  RECHARGE
    CONSTANT   0.17976220E-04
END PERIOD

BEGIN PERIOD 340
  RECHARGE
    CONSTANT   0.18799880E-04
END PERIOD

BEGIN PERIOD 341
  RECHARGE
    CONSTANT   0.19692600E-04
END PERIOD

BEGIN PERIOD 342
  RECHARGE
    CONSTANT   0.20556140E-04
END PERIOD

BEGIN PERIOD 343
  RECHARGE
    CONSTANT   0.21481520E-04
END PERIOD

BEGIN PERIOD 344
  RECHARGE
    CONSTANT   0.22424740E-04
END PERIOD

BEGIN PERIOD 345
  RECHARGE
    CONSTANT   0.23357000E-04
END PERIOD

BEGIN PERIOD 346
  RECHARGE
    CONSTANT   0.24352040E-04
END PERIOD

BEGIN PERIOD 347
  RECHARGE
    CONSTANT   0.25344060E-04
END PERIOD

BEGIN PERIOD 348
  RECHARGE
    CONSTANT   0.26367870E-04
END PERIOD

BEGIN PERIOD 349
  RECHARGE
    CONSTANT   0.27422240E-04
END PERIOD

BEGIN PERIOD 350
  RECHARGE
    CONSTANT   0.28503830E-04
END PERIOD

BEGIN PERIOD 351
  RECHARGE
    CONSTANT   0.29570940E-04
END PERIOD

BEGIN PERIOD 352
  RECHARGE
    CONSTANT   0.30694730E-04
END PERIOD

BEGIN PERIOD 353
  RECHARGE
    CONSTANT   0.31772460E-04
END PERIOD

BEGIN PERIOD 354
  RECHARGE
    CONSTANT   0.32985830E-04
END PERIOD

BEGIN PERIOD 355
  RECHARGE
    CONSTANT   0.34168830E-04
END PERIOD

BEGIN PERIOD 356
  RECHARGE
    CONSTANT   0.35367660E-04
END PERIOD

BEGIN PERIOD 357
  RECHARGE
    CONSTANT   0.36570390E-04
END PERIOD

BEGIN PERIOD 358
  RECHARGE
    CONSTANT   0.37783360E-04
END PERIOD

BEGIN PERIOD 359
  RECHARGE
    CONSTANT   0.39017470E-04
END PERIOD

BEGIN PERIOD 360
  RECHARGE
    CONSTANT   0.40273480E-04
END PERIOD

BEGIN PERIOD 361
  RECHARGE
    CONSTANT   0.41576210E-04
END PERIOD

BEGIN PERIOD 362
  RECHARGE
    CONSTANT   0.42890920E-04
END PERIOD

BEGIN PERIOD 363
  RECHARGE
    CONSTANT   0.44186530E-04
END PERIOD

BEGIN PERIOD 364
  RECHARGE
    CONSTANT   0.45516170E-04
END PERIOD

BEGIN PERIOD 365
  RECHARGE
    CONSTANT   0.46917340E-04
END PERIOD

BEGIN PERIOD 366
  RECHARGE
    CONSTANT   0.48232870E-04
END PERIOD

BEGIN PERIOD 367
  RECHARGE
    CONSTANT   0.49605930E-04
END PERIOD

BEGIN PERIOD 368
  RECHARGE
    CONSTANT   0.50980530E-04
END PERIOD

BEGIN PERIOD 369
  RECHARGE
    CONSTANT   0.52441890E-04
END PERIOD

BEGIN PERIOD 370
  RECHARGE
    CONSTANT   0.53880950E-04
END PERIOD

BEGIN PERIOD 371
  RECHARGE
    CONSTANT   0.55271530E-04
END PERIOD

BEGIN PERIOD 372
  RECHARGE
    CONSTANT   0.56796410E-04
END PERIOD

BEGIN PERIOD 373
  RECHARGE
    CONSTANT   0.58239540E-04
END PERIOD

BEGIN PERIOD 374
  RECHARGE
    CONSTANT   0.59717490E-04
END PERIOD

BEGIN PERIOD 375
  RECHARGE
    CONSTANT   0.61184550E-04
END PERIOD

BEGIN PERIOD 376
  RECHARGE
    CONSTANT   0.62738240E-04
END PERIOD

BEGIN PERIOD 377
  RECHARGE
    CONSTANT   0.64199240E-04
END PERIOD

BEGIN PERIOD 378
  RECHARGE
    CONSTANT   0.65749040E-04
END PERIOD

BEGIN PERIOD 379
  RECHARGE
    CONSTANT   0.67318190E-04
END PERIOD

BEGIN PERIOD 380
  RECHARGE
    CONSTANT   0.68849400E-04
END PERIOD

BEGIN PERIOD 381
  RECHARGE
    CONSTANT   0.70394050E-04
END PERIOD

BEGIN PERIOD 382
  RECHARGE
    CONSTANT   0.71973630E-04
END PERIOD

BEGIN PERIOD 383
  RECHARGE
    CONSTANT   0.73548060E-04
END PERIOD

BEGIN PERIOD 384
  RECHARGE
    CONSTANT   0.75207150E-04
END PERIOD

BEGIN PERIOD 385
  RECHARGE
    CONSTANT   0.76631920E-04
END PERIOD

BEGIN PERIOD 386
  RECHARGE
    CONSTANT   0.78278960E-04
END PERIOD

BEGIN PERIOD 387
  RECHARGE
    CONSTANT   0.79900440E-04
END PERIOD

BEGIN PERIOD 388
  RECHARGE
    CONSTANT   0.81501300E-04
END PERIOD

BEGIN PERIOD 389
  RECHARGE
    CONSTANT   0.83090680E-04
END PERIOD

BEGIN PERIOD 390
  RECHARGE
    CONSTANT   0.84637020E-04
END PERIOD

BEGIN PERIOD 391
  RECHARGE
    CONSTANT   0.86222720E-04
END PERIOD

BEGIN PERIOD 392
  RECHARGE
    CONSTANT   0.87932630E-04
END PERIOD

BEGIN PERIOD 393
  RECHARGE
    CONSTANT   0.89531300E-04
END PERIOD

BEGIN PERIOD 394
  RECHARGE
    CONSTANT   0.91192550E-04
END PERIOD

BEGIN PERIOD 395
  RECHARGE
    CONSTANT   0.92830490E-04
END PERIOD

BEGIN PERIOD 396
  RECHARGE
    CONSTANT   0.94532570E-04
END PERIOD

BEGIN PERIOD 397
  RECHARGE
    CONSTANT   0.96159110E-04
END PERIOD

BEGIN PERIOD 398
  RECHARGE
    CONSTANT   0.97808400E-04
END PERIOD

BEGIN PERIOD 399
  RECHARGE
    CONSTANT   0.99421810E-04
END PERIOD

BEGIN PERIOD 400
  RECHARGE
    CONSTANT   0.10106540E-03
END PERIOD

BEGIN PERIOD 401
  RECHARGE
    CONSTANT   0.10272100E-03
END PERIOD

BEGIN PERIOD 402
  RECHARGE
    CONSTANT   0.10432740E-03
END PERIOD

BEGIN PERIOD 403
  RECHARGE
    CONSTANT   0.10586650E-03
END PERIOD

BEGIN PERIOD 404
  RECHARGE
    CONSTANT   0.10755050E-03
END PERIOD

BEGIN PERIOD 405
  RECHARGE
    CONSTANT   0.10919700E-03
END PERIOD

BEGIN PERIOD 406
  RECHARGE
    CONSTANT   0.11086210E-03
END PERIOD

BEGIN PERIOD 407
  RECHARGE
    CONSTANT   0.11258590E-03
END PERIOD

BEGIN PERIOD 408
  RECHARGE
    CONSTANT   0.11415600E-03
END PERIOD

BEGIN PERIOD 409
  RECHARGE
    CONSTANT   0.11573980E-03
END PERIOD

BEGIN PERIOD 410
  RECHARGE
    CONSTANT   0.11738860E-03
END PERIOD

BEGIN PERIOD 411
  RECHARGE
    CONSTANT   0.11891420E-03
END PERIOD

BEGIN PERIOD 412
  RECHARGE
    CONSTANT   0.12049450E-03
END PERIOD

BEGIN PERIOD 413
  RECHARGE
    CONSTANT   0.12219070E-03
END PERIOD

BEGIN PERIOD 414
  RECHARGE
    CONSTANT   0.12375930E-03
END PERIOD

BEGIN PERIOD 415
  RECHARGE
    CONSTANT   0.12538840E-03
END PERIOD

BEGIN PERIOD 416
  RECHARGE
    CONSTANT   0.12702910E-03
END PERIOD

BEGIN PERIOD 417
  RECHARGE
    CONSTANT   0.12852990E-03
END PERIOD

BEGIN PERIOD 418
  RECHARGE
    CONSTANT   0.12999550E-03
END PERIOD

BEGIN PERIOD 419
  RECHARGE
    CONSTANT   0.13169870E-03
END PERIOD

BEGIN PERIOD 420
  RECHARGE
    CONSTANT   0.13323270E-03
END PERIOD

BEGIN PERIOD 421
  RECHARGE
    CONSTANT   0.13473760E-03
END PERIOD

BEGIN PERIOD 422
  RECHARGE
    CONSTANT   0.13625800E-03
END PERIOD

BEGIN PERIOD 423
  RECHARGE
    CONSTANT   0.13770500E-03
END PERIOD

BEGIN PERIOD 424
  RECHARGE
    CONSTANT   0.13916510E-03
END PERIOD

BEGIN PERIOD 425
  RECHARGE
    CONSTANT   0.14076180E-03
END PERIOD

BEGIN PERIOD 426
  RECHARGE
    CONSTANT   0.14223290E-03
END PERIOD

BEGIN PERIOD 427
  RECHARGE
    CONSTANT   0.14376730E-03
END PERIOD

BEGIN PERIOD 428
  RECHARGE
    CONSTANT   0.14513720E-03
END PERIOD

BEGIN PERIOD 429
  RECHARGE