# RCH6 input file, prepared by MF5to6 on 6/22/2020 at 10:07:20.

BEGIN Options
  READASARRAYS
END Options

BEGIN PERIOD 1
  RECHARGE
    CONSTANT   0.10000000E-03
END PERIOD

BEGIN PERIOD 2
  RECHARGE
    CONSTANT   0.10001890E-03
END PERIOD

BEGIN PERIOD 3
  RECHARGE
    CONSTANT   0.10009720E-03
END PERIOD

BEGIN PERIOD 4
  RECHARGE
    CONSTANT   0.10002550E-03
END PERIOD

BEGIN PERIOD 5
  RECHARGE
    CONSTANT   0.10003740E-03
END PERIOD

BEGIN PERIOD 6
  RECHARGE
    CONSTANT   0.10006390E-03
END PERIOD

BEGIN PERIOD 7
  RECHARGE
    CONSTANT   0.10003720E-03
END PERIOD

BEGIN PERIOD 8
  RECHARGE
    CONSTANT   0.10008050E-03
END PERIOD

BEGIN PERIOD 9
  RECHARGE
    CONSTANT   0.10007950E-03
END PERIOD

BEGIN PERIOD 10
  RECHARGE
    CONSTANT   0.10009150E-03
END PERIOD

BEGIN PERIOD 11
  RECHARGE
    CONSTANT   0.10006990E-03
END PERIOD

BEGIN PERIOD 12
  RECHARGE
    CONSTANT   0.10004340E-03
END PERIOD

BEGIN PERIOD 13
  RECHARGE
    CONSTANT   0.10003160E-03
END PERIOD

BEGIN PERIOD 14
  RECHARGE
    CONSTANT   0.10004430E-03
END PERIOD

BEGIN PERIOD 15
  RECHARGE
    CONSTANT   0.10004710E-03
END PERIOD

BEGIN PERIOD 16
  RECHARGE
    CONSTANT   0.10000730E-03
END PERIOD

BEGIN PERIOD 17
  RECHARGE
    CONSTANT   0.10003580E-03
END PERIOD

BEGIN PERIOD 18
  RECHARGE
    CONSTANT   0.10000910E-03
END PERIOD

BEGIN PERIOD 19
  RECHARGE
    CONSTANT   0.10004590E-03
END PERIOD

BEGIN PERIOD 20
  RECHARGE
    CONSTANT   0.10003660E-03
END PERIOD

BEGIN PERIOD 21
  RECHARGE
    CONSTANT   0.10009050E-03
END PERIOD

BEGIN PERIOD 22
  RECHARGE
    CONSTANT   0.10000430E-03
END PERIOD

BEGIN PERIOD 23
  RECHARGE
    CONSTANT   0.10000260E-03
END PERIOD

BEGIN PERIOD 24
  RECHARGE
    CONSTANT   0.10000330E-03
END PERIOD

BEGIN PERIOD 25
  RECHARGE
    CONSTANT   0.10006440E-03
END PERIOD

BEGIN PERIOD 26
  RECHARGE
    CONSTANT   0.10001590E-03
END PERIOD

BEGIN PERIOD 27
  RECHARGE
    CONSTANT   0.10001890E-03
END PERIOD

BEGIN PERIOD 28
  RECHARGE
    CONSTANT   0.10001960E-03
END PERIOD

BEGIN PERIOD 29
  RECHARGE
    CONSTANT   0.10007480E-03
END PERIOD

BEGIN PERIOD 30
  RECHARGE
    CONSTANT   0.10003950E-03
END PERIOD

BEGIN PERIOD 31
  RECHARGE
    CONSTANT   0.10003110E-03
END PERIOD

BEGIN PERIOD 32
  RECHARGE
    CONSTANT   0.10008980E-03
END PERIOD

BEGIN PERIOD 33
  RECHARGE
    CONSTANT   0.10007950E-03
END PERIOD

BEGIN PERIOD 34
  RECHARGE
    CONSTANT   0.10004450E-03
END PERIOD

BEGIN PERIOD 35
  RECHARGE
    CONSTANT   0.10004610E-03
END PERIOD

BEGIN PERIOD 36
  RECHARGE
    CONSTANT   0.10000160E-03
END PERIOD

BEGIN PERIOD 37
  RECHARGE
    CONSTANT   0.10006880E-03
END PERIOD

BEGIN PERIOD 38
  RECHARGE
    CONSTANT   0.10002360E-03
END PERIOD

BEGIN PERIOD 39
  RECHARGE
    CONSTANT   0.10004750E-03
END PERIOD

BEGIN PERIOD 40
  RECHARGE
    CONSTANT   0.10000290E-03
END PERIOD

BEGIN PERIOD 41
  RECHARGE
    CONSTANT   0.10003970E-03
END PERIOD

BEGIN PERIOD 42
  RECHARGE
    CONSTANT   0.10005230E-03
END PERIOD

BEGIN PERIOD 43
  RECHARGE
    CONSTANT   0.10000210E-03
END PERIOD

BEGIN PERIOD 44
  RECHARGE
    CONSTANT   0.10002630E-03
END PERIOD

BEGIN PERIOD 45
  RECHARGE
    CONSTANT   0.10000260E-03
END PERIOD

BEGIN PERIOD 46
  RECHARGE
    CONSTANT   0.10009540E-03
END PERIOD

BEGIN PERIOD 47
  RECHARGE
    CONSTANT   0.10004560E-03
END PERIOD

BEGIN PERIOD 48
  RECHARGE
    CONSTANT   0.10006440E-03
END PERIOD

BEGIN PERIOD 49
  RECHARGE
    CONSTANT   0.10007890E-03
END PERIOD

BEGIN PERIOD 50
  RECHARGE
    CONSTANT   0.10000600E-03
END PERIOD

BEGIN PERIOD 51
  RECHARGE
    CONSTANT   0.10004010E-03
END PERIOD

BEGIN PERIOD 52
  RECHARGE
    CONSTANT   0.10005780E-03
END PERIOD

BEGIN PERIOD 53
  RECHARGE
    CONSTANT   0.10005370E-03
END PERIOD

BEGIN PERIOD 54
  RECHARGE
    CONSTANT   0.10009470E-03
END PERIOD

BEGIN PERIOD 55
  RECHARGE
    CONSTANT   0.10008670E-03
END PERIOD

BEGIN PERIOD 56
  RECHARGE
    CONSTANT   0.10002900E-03
END PERIOD

BEGIN PERIOD 57
  RECHARGE
    CONSTANT   0.10009930E-03
END PERIOD

BEGIN PERIOD 58
  RECHARGE
    CONSTANT   0.10001910E-03
END PERIOD

BEGIN PERIOD 59
  RECHARGE
    CONSTANT   0.10004900E-03
END PERIOD

BEGIN PERIOD 60
  RECHARGE
    CONSTANT   0.10000710E-03
END PERIOD

BEGIN PERIOD 61
  RECHARGE
    CONSTANT   0.10008290E-03
END PERIOD

BEGIN PERIOD 62
  RECHARGE
    CONSTANT   0.10001560E-03
END PERIOD

BEGIN PERIOD 63
  RECHARGE
    CONSTANT   0.10003900E-03
END PERIOD

BEGIN PERIOD 64
  RECHARGE
    CONSTANT   0.10009050E-03
END PERIOD

BEGIN PERIOD 65
  RECHARGE
    CONSTANT   0.10001820E-03
END PERIOD

BEGIN PERIOD 66
  RECHARGE
    CONSTANT   0.10008610E-03
END PERIOD

BEGIN PERIOD 67
  RECHARGE
    CONSTANT   0.10008590E-03
END PERIOD

BEGIN PERIOD 68
  RECHARGE
    CONSTANT   0.10005110E-03
END PERIOD

BEGIN PERIOD 69
  RECHARGE
    CONSTANT   0.10005700E-03
END PERIOD

BEGIN PERIOD 70
  RECHARGE
    CONSTANT   0.10002070E-03
END PERIOD

BEGIN PERIOD 71
  RECHARGE
    CONSTANT   0.10000160E-03
END PERIOD

BEGIN PERIOD 72
  RECHARGE
    CONSTANT   0.10007820E-03
END PERIOD

BEGIN PERIOD 73
  RECHARGE
    CONSTANT   0.10005030E-03
END PERIOD

BEGIN PERIOD 74
  RECHARGE
    CONSTANT   0.10000900E-03
END PERIOD

BEGIN PERIOD 75
  RECHARGE
    CONSTANT   0.10008460E-03
END PERIOD

BEGIN PERIOD 76
  RECHARGE
    CONSTANT   0.10009070E-03
END PERIOD

BEGIN PERIOD 77
  RECHARGE
    CONSTANT   0.10006040E-03
END PERIOD

BEGIN PERIOD 78
  RECHARGE
    CONSTANT   0.10007230E-03
END PERIOD

BEGIN PERIOD 79
  RECHARGE
    CONSTANT   0.10002750E-03
END PERIOD

BEGIN PERIOD 80
  RECHARGE
    CONSTANT   0.10001400E-03
END PERIOD

BEGIN PERIOD 81
  RECHARGE
    CONSTANT   0.10009820E-03
END PERIOD

BEGIN PERIOD 82
  RECHARGE
    CONSTANT   0.10007490E-03
END PERIOD

BEGIN PERIOD 83
  RECHARGE
    CONSTANT   0.10000290E-03
END PERIOD

BEGIN PERIOD 84
  RECHARGE
    CONSTANT   0.10008740E-03
END PERIOD

BEGIN PERIOD 85
  RECHARGE
    CONSTANT   0.10005010E-03
END PERIOD

BEGIN PERIOD 86
  RECHARGE
    CONSTANT   0.10005720E-03
END PERIOD

BEGIN PERIOD 87
  RECHARGE
    CONSTANT   0.10009310E-03
END PERIOD

BEGIN PERIOD 88
  RECHARGE
    CONSTANT   0.10001670E-03
END PERIOD

BEGIN PERIOD 89
  RECHARGE
    CONSTANT   0.10009830E-03
END PERIOD

BEGIN PERIOD 90
  RECHARGE
    CONSTANT   0.10001910E-03
END PERIOD

BEGIN PERIOD 91
  RECHARGE
    CONSTANT   0.10000630E-03
END PERIOD

BEGIN PERIOD 92
  RECHARGE
    CONSTANT   0.10001290E-03
END PERIOD

BEGIN PERIOD 93
  RECHARGE
    CONSTANT   0.10010000E-03
END PERIOD

BEGIN PERIOD 94
  RECHARGE
    CONSTANT   0.10004350E-03
END PERIOD

BEGIN PERIOD 95
  RECHARGE
    CONSTANT   0.10000150E-03
END PERIOD

BEGIN PERIOD 96
  RECHARGE
    CONSTANT   0.10009830E-03
END PERIOD

BEGIN PERIOD 97
  RECHARGE
    CONSTANT   0.10007820E-03
END PERIOD

BEGIN PERIOD 98
  RECHARGE
    CONSTANT   0.10003500E-03
END PERIOD

BEGIN PERIOD 99
  RECHARGE
    CONSTANT   0.10005280E-03
END PERIOD

BEGIN PERIOD 100
  RECHARGE
    CONSTANT   0.10006970E-03
END PERIOD

BEGIN PERIOD 101
  RECHARGE
    CONSTANT   0.10003360E-03
END PERIOD

BEGIN PERIOD 102
  RECHARGE
    CONSTANT   0.10000570E-03
END PERIOD

BEGIN PERIOD 103
  RECHARGE
    CONSTANT   0.10009140E-03
END PERIOD

BEGIN PERIOD 104
  RECHARGE
    CONSTANT   0.10004710E-03
END PERIOD

BEGIN PERIOD 105
  RECHARGE
    CONSTANT   0.10001700E-03
END PERIOD

BEGIN PERIOD 106
  RECHARGE
    CONSTANT   0.10005930E-03
END PERIOD

BEGIN PERIOD 107
  RECHARGE
    CONSTANT   0.10002210E-03
END PERIOD

BEGIN PERIOD 108
  RECHARGE
    CONSTANT   0.10000230E-03
END PERIOD

BEGIN PERIOD 109
  RECHARGE
    CONSTANT   0.10004120E-03
END PERIOD

BEGIN PERIOD 110
  RECHARGE
    CONSTANT   0.10002780E-03
END PERIOD

BEGIN PERIOD 111
  RECHARGE
    CONSTANT   0.10002710E-03
END PERIOD

BEGIN PERIOD 112
  RECHARGE
    CONSTANT   0.10009150E-03
END PERIOD

BEGIN PERIOD 113
  RECHARGE
    CONSTANT   0.10006340E-03
END PERIOD

BEGIN PERIOD 114
  RECHARGE
    CONSTANT   0.10002910E-03
END PERIOD

BEGIN PERIOD 115
  RECHARGE
    CONSTANT   0.10008570E-03
END PERIOD

BEGIN PERIOD 116
  RECHARGE
    CONSTANT   0.10002040E-03
END PERIOD

BEGIN PERIOD 117
  RECHARGE
    CONSTANT   0.10005770E-03
END PERIOD

BEGIN PERIOD 118
  RECHARGE
    CONSTANT   0.10006890E-03
END PERIOD

BEGIN PERIOD 119
  RECHARGE
    CONSTANT   0.10008430E-03
END PERIOD

BEGIN PERIOD 120
  RECHARGE
    CONSTANT   0.10003890E-03
END PERIOD

BEGIN PERIOD 121
  RECHARGE
    CONSTANT   0.10008030E-03
END PERIOD

BEGIN PERIOD 122
  RECHARGE
    CONSTANT   0.10004650E-03
END PERIOD

BEGIN PERIOD 123
  RECHARGE
    CONSTANT   0.10006210E-03
END PERIOD

BEGIN PERIOD 124
  RECHARGE
    CONSTANT   0.10002310E-03
END PERIOD

BEGIN PERIOD 125
  RECHARGE
    CONSTANT   0.10007750E-03
END PERIOD

BEGIN PERIOD 126
  RECHARGE
    CONSTANT   0.10005100E-03
END PERIOD

BEGIN PERIOD 127
  RECHARGE
    CONSTANT   0.10007050E-03
END PERIOD

BEGIN PERIOD 128
  RECHARGE
    CONSTANT   0.10003890E-03
END PERIOD

BEGIN PERIOD 129
  RECHARGE
    CONSTANT   0.10003710E-03
END PERIOD

BEGIN PERIOD 130
  RECHARGE
    CONSTANT   0.10009660E-03
END PERIOD

BEGIN PERIOD 131
  RECHARGE
    CONSTANT   0.10002090E-03
END PERIOD

BEGIN PERIOD 132
  RECHARGE
    CONSTANT   0.10000080E-03
END PERIOD

BEGIN PERIOD 133
  RECHARGE
    CONSTANT   0.10005030E-03
END PERIOD

BEGIN PERIOD 134
  RECHARGE
    CONSTANT   0.10003100E-03
END PERIOD

BEGIN PERIOD 135
  RECHARGE
    CONSTANT   0.10003730E-03
END PERIOD

BEGIN PERIOD 136
  RECHARGE
    CONSTANT   0.10005170E-03
END PERIOD

BEGIN PERIOD 137
  RECHARGE
    CONSTANT   0.10001530E-03
END PERIOD

BEGIN PERIOD 138
  RECHARGE
    CONSTANT   0.10009810E-03
END PERIOD

BEGIN PERIOD 139
  RECHARGE
    CONSTANT   0.10000760E-03
END PERIOD

BEGIN PERIOD 140
  RECHARGE
    CONSTANT   0.10007080E-03
END PERIOD

BEGIN PERIOD 141
  RECHARGE
    CONSTANT   0.10004060E-03
END PERIOD

BEGIN PERIOD 142
  RECHARGE
    CONSTANT   0.10004350E-03
END PERIOD

BEGIN PERIOD 143
  RECHARGE
    CONSTANT   0.10000520E-03
END PERIOD

BEGIN PERIOD 144
  RECHARGE
    CONSTANT   0.10005820E-03
END PERIOD

BEGIN PERIOD 145
  RECHARGE
    CONSTANT   0.10000120E-03
END PERIOD

BEGIN PERIOD 146
  RECHARGE
    CONSTANT   0.10005860E-03
END PERIOD

BEGIN PERIOD 147
  RECHARGE
    CONSTANT   0.10005830E-03
END PERIOD

BEGIN PERIOD 148
  RECHARGE
    CONSTANT   0.10007250E-03
END PERIOD

BEGIN PERIOD 149
  RECHARGE
    CONSTANT   0.10009830E-03
END PERIOD

BEGIN PERIOD 150
  RECHARGE
    CONSTANT   0.10003410E-03
END PERIOD

BEGIN PERIOD 151
  RECHARGE
    CONSTANT   0.10002680E-03
END PERIOD

BEGIN PERIOD 152
  RECHARGE
    CONSTANT   0.10000420E-03
END PERIOD

BEGIN PERIOD 153
  RECHARGE
    CONSTANT   0.10002530E-03
END PERIOD

BEGIN PERIOD 154
  RECHARGE
    CONSTANT   0.10006930E-03
END PERIOD

BEGIN PERIOD 155
  RECHARGE
    CONSTANT   0.10009630E-03
END PERIOD

BEGIN PERIOD 156
  RECHARGE
    CONSTANT   0.10001150E-03
END PERIOD

BEGIN PERIOD 157
  RECHARGE
    CONSTANT   0.10009020E-03
END PERIOD

BEGIN PERIOD 158
  RECHARGE
    CONSTANT   0.10008680E-03
END PERIOD

BEGIN PERIOD 159
  RECHARGE
    CONSTANT   0.10009340E-03
END PERIOD

BEGIN PERIOD 160
  RECHARGE
    CONSTANT   0.10000350E-03
END PERIOD

BEGIN PERIOD 161
  RECHARGE
    CONSTANT   0.10003540E-03
END PERIOD

BEGIN PERIOD 162
  RECHARGE
    CONSTANT   0.10007840E-03
END PERIOD

BEGIN PERIOD 163
  RECHARGE
    CONSTANT   0.10002190E-03
END PERIOD

BEGIN PERIOD 164
  RECHARGE
    CONSTANT   0.10003460E-03
END PERIOD

BEGIN PERIOD 165
  RECHARGE
    CONSTANT   0.10000410E-03
END PERIOD

BEGIN PERIOD 166
  RECHARGE
    CONSTANT   0.10002840E-03
END PERIOD

BEGIN PERIOD 167
  RECHARGE
    CONSTANT   0.10003640E-03
END PERIOD

BEGIN PERIOD 168
  RECHARGE
    CONSTANT   0.10000140E-03
END PERIOD

BEGIN PERIOD 169
  RECHARGE
    CONSTANT   0.10003120E-03
END PERIOD

BEGIN PERIOD 170
  RECHARGE
    CONSTANT   0.10008540E-03
END PERIOD

BEGIN PERIOD 171
  RECHARGE
    CONSTANT   0.10000450E-03
END PERIOD

BEGIN PERIOD 172
  RECHARGE
    CONSTANT   0.10004950E-03
END PERIOD

BEGIN PERIOD 173
  RECHARGE
    CONSTANT   0.10005790E-03
END PERIOD

BEGIN PERIOD 174
  RECHARGE
    CONSTANT   0.10000600E-03
END PERIOD

BEGIN PERIOD 175
  RECHARGE
    CONSTANT   0.10009500E-03
END PERIOD

BEGIN PERIOD 176
  RECHARGE
    CONSTANT   0.10003220E-03
END PERIOD

BEGIN PERIOD 177
  RECHARGE
    CONSTANT   0.10001700E-03
END PERIOD

BEGIN PERIOD 178
  RECHARGE
    CONSTANT   0.10001450E-03
END PERIOD

BEGIN PERIOD 179
  RECHARGE
    CONSTANT   0.10001670E-03
END PERIOD

BEGIN PERIOD 180
  RECHARGE
    CONSTANT   0.10002080E-03
END PERIOD

BEGIN PERIOD 181
  RECHARGE
    CONSTANT   0.10008260E-03
END PERIOD

BEGIN PERIOD 182
  RECHARGE
    CONSTANT   0.10000490E-03
END PERIOD

BEGIN PERIOD 183
  RECHARGE
    CONSTANT   0.10001820E-03
END PERIOD

BEGIN PERIOD 184
  RECHARGE
    CONSTANT   0.10008430E-03
END PERIOD

BEGIN PERIOD 185
  RECHARGE
    CONSTANT   0.10000640E-03
END PERIOD

BEGIN PERIOD 186
  RECHARGE
    CONSTANT   0.10000770E-03
END PERIOD

BEGIN PERIOD 187
  RECHARGE
    CONSTANT   0.10008020E-03
END PERIOD

BEGIN PERIOD 188
  RECHARGE
    CONSTANT   0.10003550E-03
END PERIOD

BEGIN PERIOD 189
  RECHARGE
    CONSTANT   0.10009270E-03
END PERIOD

BEGIN PERIOD 190
  RECHARGE
    CONSTANT   0.10004920E-03
END PERIOD

BEGIN PERIOD 191
  RECHARGE
    CONSTANT   0.10009470E-03
END PERIOD

BEGIN PERIOD 192
  RECHARGE
    CONSTANT   0.10005890E-03
END PERIOD

BEGIN PERIOD 193
  RECHARGE
    CONSTANT   0.10002830E-03
END PERIOD

BEGIN PERIOD 194
  RECHARGE
    CONSTANT   0.10001450E-03
END PERIOD

BEGIN PERIOD 195
  RECHARGE
    CONSTANT   0.10007870E-03
END PERIOD

BEGIN PERIOD 196
  RECHARGE
    CONSTANT   0.10007830E-03
END PERIOD

BEGIN PERIOD 197
  RECHARGE
    CONSTANT   0.10003470E-03
END PERIOD

BEGIN PERIOD 198
  RECHARGE
    CONSTANT   0.10001330E-03
END PERIOD

BEGIN PERIOD 199
  RECHARGE
    CONSTANT   0.10009690E-03
END PERIOD

BEGIN PERIOD 200
  RECHARGE
    CONSTANT   0.10002260E-03
END PERIOD

BEGIN PERIOD 201
  RECHARGE
    CONSTANT   0.10000550E-03
END PERIOD

BEGIN PERIOD 202
  RECHARGE
    CONSTANT   0.10004710E-03
END PERIOD

BEGIN PERIOD 203
  RECHARGE
    CONSTANT   0.10007190E-03
END PERIOD

BEGIN PERIOD 204
  RECHARGE
    CONSTANT   0.10002520E-03
END PERIOD

BEGIN PERIOD 205
  RECHARGE
    CONSTANT   0.10006150E-03
END PERIOD

BEGIN PERIOD 206
  RECHARGE
    CONSTANT   0.10005040E-03
END PERIOD

BEGIN PERIOD 207
  RECHARGE
    CONSTANT   0.10001220E-03
END PERIOD

BEGIN PERIOD 208
  RECHARGE
    CONSTANT   0.10003520E-03
END PERIOD

BEGIN PERIOD 209
  RECHARGE
    CONSTANT   0.10005520E-03
END PERIOD

BEGIN PERIOD 210
  RECHARGE
    CONSTANT   0.10007480E-03
END PERIOD

BEGIN PERIOD 211
  RECHARGE
    CONSTANT   0.10004760E-03
END PERIOD

BEGIN PERIOD 212
  RECHARGE
    CONSTANT   0.10001020E-03
END PERIOD

BEGIN PERIOD 213
  RECHARGE
    CONSTANT   0.10005820E-03
END PERIOD

BEGIN PERIOD 214
  RECHARGE
    CONSTANT   0.10008120E-03
END PERIOD

BEGIN PERIOD 215
  RECHARGE
    CONSTANT   0.10007290E-03
END PERIOD

BEGIN PERIOD 216
  RECHARGE
    CONSTANT   0.10006520E-03
END PERIOD

BEGIN PERIOD 217
  RECHARGE
    CONSTANT   0.10001070E-03
END PERIOD

BEGIN PERIOD 218
  RECHARGE
    CONSTANT   0.10000430E-03
END PERIOD

BEGIN PERIOD 219
  RECHARGE
    CONSTANT   0.10005180E-03
END PERIOD

BEGIN PERIOD 220
  RECHARGE
    CONSTANT   0.10001030E-03
END PERIOD

BEGIN PERIOD 221
  RECHARGE
    CONSTANT   0.10001780E-03
END PERIOD

BEGIN PERIOD 222
  RECHARGE
    CONSTANT   0.10006720E-03
END PERIOD

BEGIN PERIOD 223
  RECHARGE
    CONSTANT   0.10001930E-03
END PERIOD

BEGIN PERIOD 224
  RECHARGE
    CONSTANT   0.10004370E-03
END PERIOD

BEGIN PERIOD 225
  RECHARGE
    CONSTANT   0.10002360E-03
END PERIOD

BEGIN PERIOD 226
  RECHARGE
    CONSTANT   0.10005780E-03
END PERIOD

BEGIN PERIOD 227
  RECHARGE
    CONSTANT   0.10001800E-03
END PERIOD

BEGIN PERIOD 228
  RECHARGE
    CONSTANT   0.10008020E-03
END PERIOD

BEGIN PERIOD 229
  RECHARGE
    CONSTANT   0.10008770E-03
END PERIOD

BEGIN PERIOD 230
  RECHARGE
    CONSTANT   0.10003920E-03
END PERIOD

BEGIN PERIOD 231
  RECHARGE
    CONSTANT   0.10002130E-03
END PERIOD

BEGIN PERIOD 232
  RECHARGE
    CONSTANT   0.10000670E-03
END PERIOD

BEGIN PERIOD 233
  RECHARGE
    CONSTANT   0.10008530E-03
END PERIOD

BEGIN PERIOD 234
  RECHARGE
    CONSTANT   0.10001140E-03
END PERIOD

BEGIN PERIOD 235
  RECHARGE
    CONSTANT   0.10009480E-03
END PERIOD

BEGIN PERIOD 236
  RECHARGE
    CONSTANT   0.10006000E-03
END PERIOD

BEGIN PERIOD 237
  RECHARGE
    CONSTANT   0.10000300E-03
END PERIOD

BEGIN PERIOD 238
  RECHARGE
    CONSTANT   0.10006950E-03
END PERIOD

BEGIN PERIOD 239
  RECHARGE
    CONSTANT   0.10002070E-03
END PERIOD

BEGIN PERIOD 240
  RECHARGE
    CONSTANT   0.10007300E-03
END PERIOD

BEGIN PERIOD 241
  RECHARGE
    CONSTANT   0.10005580E-03
END PERIOD

BEGIN PERIOD 242
  RECHARGE
    CONSTANT   0.10003640E-03
END PERIOD

BEGIN PERIOD 243
  RECHARGE
    CONSTANT   0.10008140E-03
END PERIOD

BEGIN PERIOD 244
  RECHARGE
    CONSTANT   0.10000510E-03
END PERIOD

BEGIN PERIOD 245
  RECHARGE
    CONSTANT   0.10008810E-03
END PERIOD

BEGIN PERIOD 246
  RECHARGE
    CONSTANT   0.10005860E-03
END PERIOD

BEGIN PERIOD 247
  RECHARGE
    CONSTANT   0.10006800E-03
END PERIOD

BEGIN PERIOD 248
  RECHARGE
    CONSTANT   0.10001990E-03
END PERIOD

BEGIN PERIOD 249
  RECHARGE
    CONSTANT   0.10003700E-03
END PERIOD

BEGIN PERIOD 250
  RECHARGE
    CONSTANT   0.10008960E-03
END PERIOD

BEGIN PERIOD 251
  RECHARGE
    CONSTANT   0.10007650E-03
END PERIOD

BEGIN PERIOD 252
  RECHARGE
    CONSTANT   0.10007470E-03
END PERIOD

BEGIN PERIOD 253
  RECHARGE
    CONSTANT   0.10003710E-03
END PERIOD

BEGIN PERIOD 254
  RECHARGE
    CONSTANT   0.10007380E-03
END PERIOD

BEGIN PERIOD 255
  RECHARGE
    CONSTANT   0.10008360E-03
END PERIOD

BEGIN PERIOD 256
  RECHARGE
    CONSTANT   0.10002580E-03
END PERIOD

BEGIN PERIOD 257
  RECHARGE
    CONSTANT   0.10000780E-03
END PERIOD

BEGIN PERIOD 258
  RECHARGE
    CONSTANT   0.10009780E-03
END PERIOD

BEGIN PERIOD 259
  RECHARGE
    CONSTANT   0.10004300E-03
END PERIOD

BEGIN PERIOD 260
  RECHARGE
    CONSTANT   0.10003460E-03
END PERIOD

BEGIN PERIOD 261
  RECHARGE
    CONSTANT   0.10009750E-03
END PERIOD

BEGIN PERIOD 262
  RECHARGE
    CONSTANT   0.10004060E-03
END PERIOD

BEGIN PERIOD 263
  RECHARGE
    CONSTANT   0.10003300E-03
END PERIOD

BEGIN PERIOD 264
  RECHARGE
    CONSTANT   0.10008480E-03
END PERIOD

BEGIN PERIOD 265
  RECHARGE
    CONSTANT   0.10006630E-03
END PERIOD

BEGIN PERIOD 266
  RECHARGE
    CONSTANT   0.10007070E-03
END PERIOD

BEGIN PERIOD 267
  RECHARGE
    CONSTANT   0.10007300E-03
END PERIOD

BEGIN PERIOD 268
  RECHARGE
    CONSTANT   0.10001440E-03
END PERIOD

BEGIN PERIOD 269
  RECHARGE
    CONSTANT   0.10000120E-03
END PERIOD

BEGIN PERIOD 270
  RECHARGE
    CONSTANT   0.10000690E-03
END PERIOD

BEGIN PERIOD 271
  RECHARGE
    CONSTANT   0.10005940E-03
END PERIOD

BEGIN PERIOD 272
  RECHARGE
    CONSTANT   0.10005880E-03
END PERIOD

BEGIN PERIOD 273
  RECHARGE
    CONSTANT   0.10009270E-03
END PERIOD

BEGIN PERIOD 274
  RECHARGE
    CONSTANT   0.10000660E-03
END PERIOD

BEGIN PERIOD 275
  RECHARGE
    CONSTANT   0.10001540E-03
END PERIOD

BEGIN PERIOD 276
  RECHARGE
    CONSTANT   0.10005100E-03
END PERIOD

BEGIN PERIOD 277
  RECHARGE
    CONSTANT   0.10009130E-03
END PERIOD

BEGIN PERIOD 278
  RECHARGE
    CONSTANT   0.10009240E-03
END PERIOD

BEGIN PERIOD 279
  RECHARGE
    CONSTANT   0.10004690E-03
END PERIOD

BEGIN PERIOD 280
  RECHARGE
    CONSTANT   0.10008880E-03
END PERIOD

BEGIN PERIOD 281
  RECHARGE
    CONSTANT   0.10001230E-03
END PERIOD

BEGIN PERIOD 282
  RECHARGE
    CONSTANT   0.10002650E-03
END PERIOD

BEGIN PERIOD 283
  RECHARGE
    CONSTANT   0.10006860E-03
END PERIOD

BEGIN PERIOD 284
  RECHARGE
    CONSTANT   0.10006310E-03
END PERIOD

BEGIN PERIOD 285
  RECHARGE
    CONSTANT   0.10008480E-03
END PERIOD

BEGIN PERIOD 286
  RECHARGE
    CONSTANT   0.10007820E-03
END PERIOD

BEGIN PERIOD 287
  RECHARGE
    CONSTANT   0.10003450E-03
END PERIOD

BEGIN PERIOD 288
  RECHARGE
    CONSTANT   0.10007450E-03
END PERIOD

BEGIN PERIOD 289
  RECHARGE
    CONSTANT   0.10003390E-03
END PERIOD

BEGIN PERIOD 290
  RECHARGE
    CONSTANT   0.10001360E-03
END PERIOD

BEGIN PERIOD 291
  RECHARGE
    CONSTANT   0.10008370E-03
END PERIOD

BEGIN PERIOD 292
  RECHARGE
    CONSTANT   0.10005020E-03
END PERIOD

BEGIN PERIOD 293
  RECHARGE
    CONSTANT   0.10002260E-03
END PERIOD

BEGIN PERIOD 294
  RECHARGE
    CONSTANT   0.10005820E-03
END PERIOD

BEGIN PERIOD 295
  RECHARGE
    CONSTANT   0.10001620E-03
END PERIOD

BEGIN PERIOD 296
  RECHARGE
    CONSTANT   0.10005770E-03
END PERIOD

BEGIN PERIOD 297
  RECHARGE
    CONSTANT   0.10005800E-03
END PERIOD

BEGIN PERIOD 298
  RECHARGE
    CONSTANT   0.10009980E-03
END PERIOD

BEGIN PERIOD 299
  RECHARGE
    CONSTANT   0.10000270E-03
END PERIOD

BEGIN PERIOD 300
  RECHARGE
    CONSTANT   0.10003150E-03
END PERIOD

BEGIN PERIOD 301
  RECHARGE
    CONSTANT   0.10003050E-03
END PERIOD

BEGIN PERIOD 302
  RECHARGE
    CONSTANT   0.10004490E-03
END PERIOD

BEGIN PERIOD 303
  RECHARGE
    CONSTANT   0.10009250E-03
END PERIOD

BEGIN PERIOD 304
  RECHARGE
    CONSTANT   0.10008340E-03
END PERIOD

BEGIN PERIOD 305
  RECHARGE
    CONSTANT   0.10007760E-03
END PERIOD

BEGIN PERIOD 306
  RECHARGE
    CONSTANT   0.10003000E-03
END PERIOD

BEGIN PERIOD 307
  RECHARGE
    CONSTANT   0.10007200E-03
END PERIOD

BEGIN PERIOD 308
  RECHARGE
    CONSTANT   0.10008190E-03
END PERIOD

BEGIN PERIOD 309
  RECHARGE
    CONSTANT   0.10002520E-03
END PERIOD

BEGIN PERIOD 310
  RECHARGE
    CONSTANT   0.10010000E-03
END PERIOD

BEGIN PERIOD 311
  RECHARGE
    CONSTANT   0.10007600E-03
END PERIOD

BEGIN PERIOD 312
  RECHARGE
    CONSTANT   0.10002290E-03
END PERIOD

BEGIN PERIOD 313
  RECHARGE
    CONSTANT   0.10006070E-03
END PERIOD

BEGIN PERIOD 314
  RECHARGE
    CONSTANT   0.10001090E-03
END PERIOD

BEGIN PERIOD 315
  RECHARGE
    CONSTANT   0.10009210E-03
END PERIOD

BEGIN PERIOD 316
  RECHARGE
    CONSTANT   0.10001180E-03
END PERIOD

BEGIN PERIOD 317
  RECHARGE
    CONSTANT   0.10008780E-03
END PERIOD

BEGIN PERIOD 318
  RECHARGE
    CONSTANT   0.10001030E-03
END PERIOD

BEGIN PERIOD 319
  RECHARGE
    CONSTANT   0.10006350E-03
END PERIOD

BEGIN PERIOD 320
  RECHARGE
    CONSTANT   0.10002430E-03
END PERIOD

BEGIN PERIOD 321
  RECHARGE
    CONSTANT   0.10007400E-03
END PERIOD

BEGIN PERIOD 322
  RECHARGE
    CONSTANT   0.10000050E-03
END PERIOD

BEGIN PERIOD 323
  RECHARGE
    CONSTANT   0.10009360E-03
END PERIOD

BEGIN PERIOD 324
  RECHARGE
    CONSTANT   0.10002640E-03
END PERIOD

BEGIN PERIOD 325
  RECHARGE
    CONSTANT   0.10009200E-03
END PERIOD

BEGIN PERIOD 326
  RECHARGE
    CONSTANT   0.10003720E-03
END PERIOD

BEGIN PERIOD 327
  RECHARGE
    CONSTANT   0.10003890E-03
END PERIOD

BEGIN PERIOD 328
  RECHARGE
    CONSTANT   0.10008340E-03
END PERIOD

BEGIN PERIOD 329
  RECHARGE
    CONSTANT   0.10006730E-03
END PERIOD

BEGIN PERIOD 330
  RECHARGE
    CONSTANT   0.10002320E-03
END PERIOD

BEGIN PERIOD 331
  RECHARGE
    CONSTANT   0.10002660E-03
END PERIOD

BEGIN PERIOD 332
  RECHARGE
    CONSTANT   0.10003960E-03
END PERIOD

BEGIN PERIOD 333
  RECHARGE
    CONSTANT   0.10004990E-03
END PERIOD

BEGIN PERIOD 334
  RECHARGE
    CONSTANT   0.10006150E-03
END PERIOD

BEGIN PERIOD 335
  RECHARGE
    CONSTANT   0.10009550E-03
END PERIOD

BEGIN PERIOD 336
  RECHARGE
    CONSTANT   0.10006370E-03
END PERIOD

BEGIN PERIOD 337
  RECHARGE
    CONSTANT   0.10005530E-03
END PERIOD

BEGIN PERIOD 338
  RECHARGE
    CONSTANT   0.10000640E-03
END PERIOD

BEGIN PERIOD 339
  RECHARGE
    CONSTANT   0.10000460E-03
END PERIOD

BEGIN PERIOD 340
  RECHARGE
    CONSTANT   0.10006000E-03
END PERIOD

BEGIN PERIOD 341
  RECHARGE
    CONSTANT   0.10003980E-03
END PERIOD

BEGIN PERIOD 342
  RECHARGE
    CONSTANT   0.10003930E-03
END PERIOD

BEGIN PERIOD 343
  RECHARGE
    CONSTANT   0.10000430E-03
END PERIOD

BEGIN PERIOD 344
  RECHARGE
    CONSTANT   0.10004690E-03
END PERIOD

BEGIN PERIOD 345
  RECHARGE
    CONSTANT   0.10002600E-03
END PERIOD

BEGIN PERIOD 346
  RECHARGE
    CONSTANT   0.10000420E-03
END PERIOD

BEGIN PERIOD 347
  RECHARGE
    CONSTANT   0.10006800E-03
END PERIOD

BEGIN PERIOD 348
  RECHARGE
    CONSTANT   0.10001690E-03
END PERIOD

BEGIN PERIOD 349
  RECHARGE
    CONSTANT   0.10005440E-03
END PERIOD

BEGIN PERIOD 350
  RECHARGE
    CONSTANT   0.10000200E-03
END PERIOD

BEGIN PERIOD 351
  RECHARGE
    CONSTANT   0.10005970E-03
END PERIOD

BEGIN PERIOD 352
  RECHARGE
    CONSTANT   0.10002800E-03
END PERIOD

BEGIN PERIOD 353
  RECHARGE
    CONSTANT   0.10001370E-03
END PERIOD

BEGIN PERIOD 354
  RECHARGE
    CONSTANT   0.10005650E-03
END PERIOD

BEGIN PERIOD 355
  RECHARGE
    CONSTANT   0.10001690E-03
END PERIOD

BEGIN PERIOD 356
  RECHARGE
    CONSTANT   0.10006240E-03
END PERIOD

BEGIN PERIOD 357
  RECHARGE
    CONSTANT   0.10007200E-03
END PERIOD

BEGIN PERIOD 358
  RECHARGE
    CONSTANT   0.10001090E-03
END PERIOD

BEGIN PERIOD 359
  RECHARGE
    CONSTANT   0.10001510E-03
END PERIOD

BEGIN PERIOD 360
  RECHARGE
    CONSTANT   0.10003070E-03
END PERIOD

BEGIN PERIOD 361
  RECHARGE
    CONSTANT   0.10000380E-03
END PERIOD

BEGIN PERIOD 362
  RECHARGE
    CONSTANT   0.10007040E-03
END PERIOD

BEGIN PERIOD 363
  RECHARGE
    CONSTANT   0.10009730E-03
END PERIOD

BEGIN PERIOD 364
  RECHARGE
    CONSTANT   0.10005220E-03
END PERIOD

BEGIN PERIOD 365
  RECHARGE
    CONSTANT   0.10005440E-03
END PERIOD

BEGIN PERIOD 366
  RECHARGE
    CONSTANT   0.10008010E-03
END PERIOD

BEGIN PERIOD 367
  RECHARGE
    CONSTANT   0.10009590E-03
END PERIOD

BEGIN PERIOD 368
  RECHARGE
    CONSTANT   0.10005950E-03
END PERIOD

BEGIN PERIOD 369
  RECHARGE
    CONSTANT   0.10008010E-03
END PERIOD

BEGIN PERIOD 370
  RECHARGE
    CONSTANT   0.10004090E-03
END PERIOD

BEGIN PERIOD 371
  RECHARGE
    CONSTANT   0.10000390E-03
END PERIOD

BEGIN PERIOD 372
  RECHARGE
    CONSTANT   0.10001050E-03
END PERIOD

BEGIN PERIOD 373
  RECHARGE
    CONSTANT   0.10004270E-03
END PERIOD

BEGIN PERIOD 374
  RECHARGE
    CONSTANT   0.10002490E-03
END PERIOD

BEGIN PERIOD 375
  RECHARGE
    CONSTANT   0.10005720E-03
END PERIOD

BEGIN PERIOD 376
  RECHARGE
    CONSTANT   0.10000950E-03
END PERIOD

BEGIN PERIOD 377
  RECHARGE
    CONSTANT   0.10008790E-03
END PERIOD

BEGIN PERIOD 378
  RECHARGE
    CONSTANT   0.10003030E-03
END PERIOD

BEGIN PERIOD 379
  RECHARGE
    CONSTANT   0.10001640E-03
END PERIOD

BEGIN PERIOD 380
  RECHARGE
    CONSTANT   0.10009320E-03
END PERIOD

BEGIN PERIOD 381
  RECHARGE
    CONSTANT   0.10008590E-03
END PERIOD

BEGIN PERIOD 382
  RECHARGE
    CONSTANT   0.10002170E-03
END PERIOD

BEGIN PERIOD 383
  RECHARGE
    CONSTANT   0.10002050E-03
END PERIOD

BEGIN PERIOD 384
  RECHARGE
    CONSTANT   0.10009610E-03
END PERIOD

BEGIN PERIOD 385
  RECHARGE
    CONSTANT   0.10002960E-03
END PERIOD

BEGIN PERIOD 386
  RECHARGE
    CONSTANT   0.10003430E-03
END PERIOD

BEGIN PERIOD 387
  RECHARGE
    CONSTANT   0.10004390E-03
END PERIOD

BEGIN PERIOD 388
  RECHARGE
    CONSTANT   0.10004840E-03
END PERIOD

BEGIN PERIOD 389
  RECHARGE
    CONSTANT   0.10006800E-03
END PERIOD

BEGIN PERIOD 390
  RECHARGE
    CONSTANT   0.10001710E-03
END PERIOD

BEGIN PERIOD 391
  RECHARGE
    CONSTANT   0.10008150E-03
END PERIOD

BEGIN PERIOD 392
  RECHARGE
    CONSTANT   0.10006880E-03
END PERIOD

BEGIN PERIOD 393
  RECHARGE
    CONSTANT   0.10007540E-03
END PERIOD

BEGIN PERIOD 394
  RECHARGE
    CONSTANT   0.10007260E-03
END PERIOD

BEGIN PERIOD 395
  RECHARGE
    CONSTANT   0.10007490E-03
END PERIOD

BEGIN PERIOD 396
  RECHARGE
    CONSTANT   0.10004840E-03
END PERIOD

BEGIN PERIOD 397
  RECHARGE
    CONSTANT   0.10007640E-03
END PERIOD

BEGIN PERIOD 398
  RECHARGE
    CONSTANT   0.10004090E-03
END PERIOD

BEGIN PERIOD 399
  RECHARGE
    CONSTANT   0.10003120E-03
END PERIOD

BEGIN PERIOD 400
  RECHARGE
    CONSTANT   0.10005810E-03
END PERIOD

BEGIN PERIOD 401
  RECHARGE
    CONSTANT   0.10001690E-03
END PERIOD

BEGIN PERIOD 402
  RECHARGE
    CONSTANT   0.10006670E-03
END PERIOD

BEGIN PERIOD 403
  RECHARGE
    CONSTANT   0.10007750E-03
END PERIOD

BEGIN PERIOD 404
  RECHARGE
    CONSTANT   0.10004940E-03
END PERIOD

BEGIN PERIOD 405
  RECHARGE
    CONSTANT   0.10008100E-03
END PERIOD

BEGIN PERIOD 406
  RECHARGE
    CONSTANT   0.10001720E-03
END PERIOD

BEGIN PERIOD 407
  RECHARGE
    CONSTANT   0.10003960E-03
END PERIOD

BEGIN PERIOD 408
  RECHARGE
    CONSTANT   0.10003530E-03
END PERIOD

BEGIN PERIOD 409
  RECHARGE
    CONSTANT   0.10007820E-03
END PERIOD

BEGIN PERIOD 410
  RECHARGE
    CONSTANT   0.10009680E-03
END PERIOD

BEGIN PERIOD 411
  RECHARGE
    CONSTANT   0.10006810E-03
END PERIOD

BEGIN PERIOD 412
  RECHARGE
    CONSTANT   0.10005820E-03
END PERIOD

BEGIN PERIOD 413
  RECHARGE
    CONSTANT   0.10003020E-03
END PERIOD

BEGIN PERIOD 414
  RECHARGE
    CONSTANT   0.10005740E-03
END PERIOD

BEGIN PERIOD 415
  RECHARGE
    CONSTANT   0.10005980E-03
END PERIOD

BEGIN PERIOD 416
  RECHARGE
    CONSTANT   0.10001710E-03
END PERIOD

BEGIN PERIOD 417
  RECHARGE
    CONSTANT   0.10007660E-03
END PERIOD

BEGIN PERIOD 418
  RECHARGE
    CONSTANT   0.10001700E-03
END PERIOD

BEGIN PERIOD 419
  RECHARGE
    CONSTANT   0.10005070E-03
END PERIOD

BEGIN PERIOD 420
  RECHARGE
    CONSTANT   0.10003340E-03
END PERIOD

BEGIN PERIOD 421
  RECHARGE
    CONSTANT   0.10001870E-03
END PERIOD

BEGIN PERIOD 422
  RECHARGE
    CONSTANT   0.10006950E-03
END PERIOD

BEGIN PERIOD 423
  RECHARGE
    CONSTANT   0.10000270E-03
END PERIOD

BEGIN PERIOD 424
  RECHARGE
    CONSTANT   0.10000630E-03
END PERIOD

BEGIN PERIOD 425
  RECHARGE
    CONSTANT   0.10004500E-03
END PERIOD

BEGIN PERIOD 426
  RECHARGE
    CONSTANT   0.10000890E-03
END PERIOD

BEGIN PERIOD 427
  RECHARGE
    CONSTANT   0.10009510E-03
END PERIOD

BEGIN PERIOD 428
  RECHARGE
    CONSTANT   0.10007310E-03
END PERIOD

BEGIN PERIOD 429
  RECHARGE