# WEL6 input file, prepared by MF5to6 on 6/22/2020 at 10:07:20.

BEGIN Options
  PRINT_INPUT
  PRINT_FLOWS
  SAVE_FLOWS
END Options

BEGIN Dimensions
  MAXBOUND  6
END Dimensions

BEGIN PERIOD 1
  3  29  50   -150.00000
  3  35  41   -150.00000
  3  62  44   -150.00000
  3  80  32   -150.00000
  3  89  20   -150.00000
  3  104  38   -150.00000
END PERIOD

BEGIN PERIOD 2
  3  29  50   -150.06403
  3  35  41   -150.06403
  3  62  44   -150.06403
  3  80  32   -150.06403
  3  89  20   -150.06403
  3  104  38   -150.06403
END PERIOD

BEGIN PERIOD 3
  3  29  50   -150.04030
  3  35  41   -150.04030
  3  62  44   -150.04030
  3  80  32   -150.04030
  3  89  20   -150.04030
  3  104  38   -150.04030
END PERIOD

BEGIN PERIOD 4
  3  29  50   -150.05287
  3  35  41   -150.05287
  3  62  44   -150.05287
  3  80  32   -150.05287
  3  89  20   -150.05287
  3  104  38   -150.05287
END PERIOD

BEGIN PERIOD 5
  3  29  50   -150.13225
  3  35  41   -150.13225
  3  62  44   -150.13225
  3  80  32   -150.13225
  3  89  20   -150.13225
  3  104  38   -150.13225
END PERIOD

BEGIN PERIOD 6
  3  29  50   -150.07310
  3  35  41   -150.07310
  3  62  44   -150.07310
  3  80  32   -150.07310
  3  89  20   -150.07310
  3  104  38   -150.07310
END PERIOD

BEGIN PERIOD 7
  3  29  50   -150.11342
  3  35  41   -150.11342
  3  62  44   -150.11342
  3  80  32   -150.11342
  3  89  20   -150.11342
  3  104  38   -150.11342
END PERIOD

BEGIN PERIOD 8
  3  29  50   -150.07196
  3  35  41   -150.07196
  3  62  44   -150.07196
  3  80  32   -150.07196
  3  89  20   -150.07196
  3  104  38   -150.07196
END PERIOD

BEGIN PERIOD 9
  3  29  50   -150.02686
  3  35  41   -150.02686
  3  62  44   -150.02686
  3  80  32   -150.02686
  3  89  20   -150.02686
  3  104  38   -150.02686
END PERIOD

BEGIN PERIOD 10
  3  29  50   -150.00725
  3  35  41   -150.00725
  3  62  44   -150.00725
  3  80  32   -150.00725
  3  89  20   -150.00725
  3  104  38   -150.00725
END PERIOD

BEGIN PERIOD 11
  3  29  50   -150.04066
  3  35  41   -150.04066
  3  62  44   -150.04066
  3  80  32   -150.04066
  3  89  20   -150.04066
  3  104  38   -150.04066
END PERIOD

BEGIN PERIOD 12
  3  29  50   -150.04291
  3  35  41   -150.04291
  3  62  44   -150.04291
  3  80  32   -150.04291
  3  89  20   -150.04291
  3  104  38   -150.04291
END PERIOD

BEGIN PERIOD 13
  3  29  50   -150.00906
  3  35  41   -150.00906
  3  62  44   -150.00906
  3  80  32   -150.00906
  3  89  20   -150.00906
  3  104  38   -150.00906
END PERIOD

BEGIN PERIOD 14
  3  29  50   -150.04716
  3  35  41   -150.04716
  3  62  44   -150.04716
  3  80  32   -150.04716
  3  89  20   -150.04716
  3  104  38   -150.04716
END PERIOD

BEGIN PERIOD 15
  3  29  50   -150.04050
  3  35  41   -150.04050
  3  62  44   -150.04050
  3  80  32   -150.04050
  3  89  20   -150.04050
  3  104  38   -150.04050
END PERIOD

BEGIN PERIOD 16
  3  29  50   -150.12343
  3  35  41   -150.12343
  3  62  44   -150.12343
  3  80  32   -150.12343
  3  89  20   -150.12343
  3  104  38   -150.12343
END PERIOD

BEGIN PERIOD 17
  3  29  50   -150.11583
  3  35  41   -150.11583
  3  62  44   -150.11583
  3  80  32   -150.11583
  3  89  20   -150.11583
  3  104  38   -150.11583
END PERIOD

BEGIN PERIOD 18
  3  29  50   -150.02681
  3  35  41   -150.02681
  3  62  44   -150.02681
  3  80  32   -150.02681
  3  89  20   -150.02681
  3  104  38   -150.02681
END PERIOD

BEGIN PERIOD 19
  3  29  50   -150.05795
  3  35  41   -150.05795
  3  62  44   -150.05795
  3  80  32   -150.05795
  3  89  20   -150.05795
  3  104  38   -150.05795
END PERIOD

BEGIN PERIOD 20
  3  29  50   -150.05638
  3  35  41   -150.05638
  3  62  44   -150.05638
  3  80  32   -150.05638
  3  89  20   -150.05638
  3  104  38   -150.05638
END PERIOD

BEGIN PERIOD 21
  3  29  50   -150.08737
  3  35  41   -150.08737
  3  62  44   -150.08737
  3  80  32   -150.08737
  3  89  20   -150.08737
  3  104  38   -150.08737
END PERIOD

BEGIN PERIOD 22
  3  29  50   -150.07346
  3  35  41   -150.07346
  3  62  44   -150.07346
  3  80  32   -150.07346
  3  89  20   -150.07346
  3  104  38   -150.07346
END PERIOD

BEGIN PERIOD 23
  3  29  50   -150.14140
  3  35  41   -150.14140
  3  62  44   -150.14140
  3  80  32   -150.14140
  3  89  20   -150.14140
  3  104  38   -150.14140
END PERIOD

BEGIN PERIOD 24
  3  29  50   -150.02250
  3  35  41   -150.02250
  3  62  44   -150.02250
  3  80  32   -150.02250
  3  89  20   -150.02250
  3  104  38   -150.02250
END PERIOD

BEGIN PERIOD 25
  3  29  50   -150.06420
  3  35  41   -150.06420
  3  62  44   -150.06420
  3  80  32   -150.06420
  3  89  20   -150.06420
  3  104  38   -150.06420
END PERIOD

BEGIN PERIOD 26
  3  29  50   -150.04990
  3  35  41   -150.04990
  3  62  44   -150.04990
  3  80  32   -150.04990
  3  89  20   -150.04990
  3  104  38   -150.04990
END PERIOD

BEGIN PERIOD 27
  3  29  50   -150.14350
  3  35  41   -150.14350
  3  62  44   -150.14350
  3  80  32   -150.14350
  3  89  20   -150.14350
  3  104  38   -150.14350
END PERIOD

BEGIN PERIOD 28
  3  29  50   -150.13538
  3  35  41   -150.13538
  3  62  44   -150.13538
  3  80  32   -150.13538
  3  89  20   -150.13538
  3  104  38   -150.13538
END PERIOD

BEGIN PERIOD 29
  3  29  50   -150.05782
  3  35  41   -150.05782
  3  62  44   -150.05782
  3  80  32   -150.05782
  3  89  20   -150.05782
  3  104  38   -150.05782
END PERIOD

BEGIN PERIOD 30
  3  29  50   -150.01718
  3  35  41   -150.01718
  3  62  44   -150.01718
  3  80  32   -150.01718
  3  89  20   -150.01718
  3  104  38   -150.01718
END PERIOD

BEGIN PERIOD 31
  3  29  50   -150.00014
  3  35  41   -150.00014
  3  62  44   -150.00014
  3  80  32   -150.00014
  3  89  20   -150.00014
  3  104  38   -150.00014
END PERIOD

BEGIN PERIOD 32
  3  29  50   -150.14420
  3  35  41   -150.14420
  3  62  44   -150.14420
  3  80  32   -150.14420
  3  89  20   -150.14420
  3  104  38   -150.14420
END PERIOD

BEGIN PERIOD 33
  3  29  50   -150.05661
  3  35  41   -150.05661
  3  62  44   -150.05661
  3  80  32   -150.05661
  3  89  20   -150.05661
  3  104  38   -150.05661
END PERIOD

BEGIN PERIOD 34
  3  29  50   -150.02122
  3  35  41   -150.02122
  3  62  44   -150.02122
  3  80  32   -150.02122
  3  89  20   -150.02122
  3  104  38   -150.02122
END PERIOD

BEGIN PERIOD 35
  3  29  50   -150.14662
  3  35  41   -150.14662
  3  62  44   -150.14662
  3  80  32   -150.14662
  3  89  20   -150.14662
  3  104  38   -150.14662
END PERIOD

BEGIN PERIOD 36
  3  29  50   -150.03787
  3  35  41   -150.03787
  3  62  44   -150.03787
  3  80  32   -150.03787
  3  89  20   -150.03787
  3  104  38   -150.03787
END PERIOD

BEGIN PERIOD 37
  3  29  50   -150.04580
  3  35  41   -150.04580
  3  62  44   -150.04580
  3  80  32   -150.04580
  3  89  20   -150.04580
  3  104  38   -150.04580
END PERIOD

BEGIN PERIOD 38
  3  29  50   -150.08122
  3  35  41   -150.08122
  3  62  44   -150.08122
  3  80  32   -150.08122
  3  89  20   -150.08122
  3  104  38   -150.08122
END PERIOD

BEGIN PERIOD 39
  3  29  50   -150.08136
  3  35  41   -150.08136
  3  62  44   -150.08136
  3  80  32   -150.08136
  3  89  20   -150.08136
  3  104  38   -150.08136
END PERIOD

BEGIN PERIOD 40
  3  29  50   -150.05785
  3  35  41   -150.05785
  3  62  44   -150.05785
  3  80  32   -150.05785
  3  89  20   -150.05785
  3  104  38   -150.05785
END PERIOD

BEGIN PERIOD 41
  3  29  50   -150.14462
  3  35  41   -150.14462
  3  62  44   -150.14462
  3  80  32   -150.14462
  3  89  20   -150.14462
  3  104  38   -150.14462
END PERIOD

BEGIN PERIOD 42
  3  29  50   -150.11925
  3  35  41   -150.11925
  3  62  44   -150.11925
  3  80  32   -150.11925
  3  89  20   -150.11925
  3  104  38   -150.11925
END PERIOD

BEGIN PERIOD 43
  3  29  50   -150.07204
  3  35  41   -150.07204
  3  62  44   -150.07204
  3  80  32   -150.07204
  3  89  20   -150.07204
  3  104  38   -150.07204
END PERIOD

BEGIN PERIOD 44
  3  29  50   -150.12842
  3  35  41   -150.12842
  3  62  44   -150.12842
  3  80  32   -150.12842
  3  89  20   -150.12842
  3  104  38   -150.12842
END PERIOD

BEGIN PERIOD 45
  3  29  50   -150.03171
  3  35  41   -150.03171
  3  62  44   -150.03171
  3  80  32   -150.03171
  3  89  20   -150.03171
  3  104  38   -150.03171
END PERIOD

BEGIN PERIOD 46
  3  29  50   -150.14140
  3  35  41   -150.14140
  3  62  44   -150.14140
  3  80  32   -150.14140
  3  89  20   -150.14140
  3  104  38   -150.14140
END PERIOD

BEGIN PERIOD 47
  3  29  50   -150.00570
  3  35  41   -150.00570
  3  62  44   -150.00570
  3  80  32   -150.00570
  3  89  20   -150.00570
  3  104  38   -150.00570
END PERIOD

BEGIN PERIOD 48
  3  29  50   -150.05167
  3  35  41   -150.05167
  3  62  44   -150.05167
  3  80  32   -150.05167
  3  89  20   -150.05167
  3  104  38   -150.05167
END PERIOD

BEGIN PERIOD 49
  3  29  50   -150.09932
  3  35  41   -150.09932
  3  62  44   -150.09932
  3  80  32   -150.09932
  3  89  20   -150.09932
  3  104  38   -150.09932
END PERIOD

BEGIN PERIOD 50
  3  29  50   -150.02248
  3  35  41   -150.02248
  3  62  44   -150.02248
  3  80  32   -150.02248
  3  89  20   -150.02248
  3  104  38   -150.02248
END PERIOD

BEGIN PERIOD 51
  3  29  50   -150.13765
  3  35  41   -150.13765
  3  62  44   -150.13765
  3  80  32   -150.13765
  3  89  20   -150.13765
  3  104  38   -150.13765
END PERIOD

BEGIN PERIOD 52
  3  29  50   -150.04070
  3  35  41   -150.04070
  3  62  44   -150.04070
  3  80  32   -150.04070
  3  89  20   -150.04070
  3  104  38   -150.04070
END PERIOD

BEGIN PERIOD 53
  3  29  50   -150.11461
  3  35  41   -150.11461
  3  62  44   -150.11461
  3  80  32   -150.11461
  3  89  20   -150.11461
  3  104  38   -150.11461
END PERIOD

BEGIN PERIOD 54
  3  29  50   -150.12184
  3  35  41   -150.12184
  3  62  44   -150.12184
  3  80  32   -150.12184
  3  89  20   -150.12184
  3  104  38   -150.12184
END PERIOD

BEGIN PERIOD 55
  3  29  50   -150.03993
  3  35  41   -150.03993
  3  62  44   -150.03993
  3  80  32   -150.03993
  3  89  20   -150.03993
  3  104  38   -150.03993
END PERIOD

BEGIN PERIOD 56
  3  29  50   -150.03662
  3  35  41   -150.03662
  3  62  44   -150.03662
  3  80  32   -150.03662
  3  89  20   -150.03662
  3  104  38   -150.03662
END PERIOD

BEGIN PERIOD 57
  3  29  50   -150.02405
  3  35  41   -150.02405
  3  62  44   -150.02405
  3  80  32   -150.02405
  3  89  20   -150.02405
  3  104  38   -150.02405
END PERIOD

BEGIN PERIOD 58
  3  29  50   -150.03526
  3  35  41   -150.03526
  3  62  44   -150.03526
  3  80  32   -150.03526
  3  89  20   -150.03526
  3  104  38   -150.03526
END PERIOD

BEGIN PERIOD 59
  3  29  50   -150.12767
  3  35  41   -150.12767
  3  62  44   -150.12767
  3  80  32   -150.12767
  3  89  20   -150.12767
  3  104  38   -150.12767
END PERIOD

BEGIN PERIOD 60
  3  29  50   -150.06082
  3  35  41   -150.06082
  3  62  44   -150.06082
  3  80  32   -150.06082
  3  89  20   -150.06082
  3  104  38   -150.06082
END PERIOD

BEGIN PERIOD 61
  3  29  50   -150.06523
  3  35  41   -150.06523
  3  62  44   -150.06523
  3  80  32   -150.06523
  3  89  20   -150.06523
  3  104  38   -150.06523
END PERIOD

BEGIN PERIOD 62
  3  29  50   -150.12987
  3  35  41   -150.12987
  3  62  44   -150.12987
  3  80  32   -150.12987
  3  89  20   -150.12987
  3  104  38   -150.12987
END PERIOD

BEGIN PERIOD 63
  3  29  50   -150.03435
  3  35  41   -150.03435
  3  62  44   -150.03435
  3  80  32   -150.03435
  3  89  20   -150.03435
  3  104  38   -150.03435
END PERIOD

BEGIN PERIOD 64
  3  29  50   -150.09258
  3  35  41   -150.09258
  3  62  44   -150.09258
  3  80  32   -150.09258
  3  89  20   -150.09258
  3  104  38   -150.09258
END PERIOD

BEGIN PERIOD 65
  3  29  50   -150.05356
  3  35  41   -150.05356
  3  62  44   -150.05356
  3  80  32   -150.05356
  3  89  20   -150.05356
  3  104  38   -150.05356
END PERIOD

BEGIN PERIOD 66
  3  29  50   -150.09311
  3  35  41   -150.09311
  3  62  44   -150.09311
  3  80  32   -150.09311
  3  89  20   -150.09311
  3  104  38   -150.09311
END PERIOD

BEGIN PERIOD 67
  3  29  50   -150.05661
  3  35  41   -150.05661
  3  62  44   -150.05661
  3  80  32   -150.05661
  3  89  20   -150.05661
  3  104  38   -150.05661
END PERIOD

BEGIN PERIOD 68
  3  29  50   -150.04253
  3  35  41   -150.04253
  3  62  44   -150.04253
  3  80  32   -150.04253
  3  89  20   -150.04253
  3  104  38   -150.04253
END PERIOD

BEGIN PERIOD 69
  3  29  50   -150.11203
  3  35  41   -150.11203
  3  62  44   -150.11203
  3  80  32   -150.11203
  3  89  20   -150.11203
  3  104  38   -150.11203
END PERIOD

BEGIN PERIOD 70
  3  29  50   -150.08492
  3  35  41   -150.08492
  3  62  44   -150.08492
  3  80  32   -150.08492
  3  89  20   -150.08492
  3  104  38   -150.08492
END PERIOD

BEGIN PERIOD 71
  3  29  50   -150.07646
  3  35  41   -150.07646
  3  62  44   -150.07646
  3  80  32   -150.07646
  3  89  20   -150.07646
  3  104  38   -150.07646
END PERIOD

BEGIN PERIOD 72
  3  29  50   -150.06640
  3  35  41   -150.06640
  3  62  44   -150.06640
  3  80  32   -150.06640
  3  89  20   -150.06640
  3  104  38   -150.06640
END PERIOD

BEGIN PERIOD 73
  3  29  50   -150.03790
  3  35  41   -150.03790
  3  62  44   -150.03790
  3  80  32   -150.03790
  3  89  20   -150.03790
  3  104  38   -150.03790
END PERIOD

BEGIN PERIOD 74
  3  29  50   -150.00645
  3  35  41   -150.00645
  3  62  44   -150.00645
  3  80  32   -150.00645
  3  89  20   -150.00645
  3  104  38   -150.00645
END PERIOD

BEGIN PERIOD 75
  3  29  50   -150.08737
  3  35  41   -150.08737
  3  62  44   -150.08737
  3  80  32   -150.08737
  3  89  20   -150.08737
  3  104  38   -150.08737
END PERIOD

BEGIN PERIOD 76
  3  29  50   -150.01259
  3  35  41   -150.01259
  3  62  44   -150.01259
  3  80  32   -150.01259
  3  89  20   -150.01259
  3  104  38   -150.01259
END PERIOD

BEGIN PERIOD 77
  3  29  50   -150.04591
  3  35  41   -150.04591
  3  62  44   -150.04591
  3  80  32   -150.04591
  3  89  20   -150.04591
  3  104  38   -150.04591
END PERIOD

BEGIN PERIOD 78
  3  29  50   -150.10977
  3  35  41   -150.10977
  3  62  44   -150.10977
  3  80  32   -150.10977
  3  89  20   -150.10977
  3  104  38   -150.10977
END PERIOD

BEGIN PERIOD 79
  3  29  50   -150.06813
  3  35  41   -150.06813
  3  62  44   -150.06813
  3  80  32   -150.06813
  3  89  20   -150.06813
  3  104  38   -150.06813
END PERIOD

BEGIN PERIOD 80
  3  29  50   -150.05617
  3  35  41   -150.05617
  3  62  44   -150.05617
  3  80  32   -150.05617
  3  89  20   -150.05617
  3  104  38   -150.05617
END PERIOD

BEGIN PERIOD 81
  3  29  50   -150.08087
  3  35  41   -150.08087
  3  62  44   -150.08087
  3  80  32   -150.08087
  3  89  20   -150.08087
  3  104  38   -150.08087
END PERIOD

BEGIN PERIOD 82
  3  29  50   -150.11124
  3  35  41   -150.11124
  3  62  44   -150.11124
  3  80  32   -150.11124
  3  89  20   -150.11124
  3  104  38   -150.11124
END PERIOD

BEGIN PERIOD 83
  3  29  50   -150.03806
  3  35  41   -150.03806
  3  62  44   -150.03806
  3  80  32   -150.03806
  3  89  20   -150.03806
  3  104  38   -150.03806
END PERIOD

BEGIN PERIOD 84
  3  29  50   -150.02500
  3  35  41   -150.02500
  3  62  44   -150.02500
  3  80  32   -150.02500
  3  89  20   -150.02500
  3  104  38   -150.02500
END PERIOD

BEGIN PERIOD 85
  3  29  50   -150.13329
  3  35  41   -150.13329
  3  62  44   -150.13329
  3  80  32   -150.13329
  3  89  20   -150.13329
  3  104  38   -150.13329
END PERIOD

BEGIN PERIOD 86
  3  29  50   -150.11742
  3  35  41   -150.11742
  3  62  44   -150.11742
  3  80  32   -150.11742
  3  89  20   -150.11742
  3  104  38   -150.11742
END PERIOD

BEGIN PERIOD 87
  3  29  50   -150.05693
  3  35  41   -150.05693
  3  62  44   -150.05693
  3  80  32   -150.05693
  3  89  20   -150.05693
  3  104  38   -150.05693
END PERIOD

BEGIN PERIOD 88
  3  29  50   -150.05817
  3  35  41   -150.05817
  3  62  44   -150.05817
  3  80  32   -150.05817
  3  89  20   -150.05817
  3  104  38   -150.05817
END PERIOD

BEGIN PERIOD 89
  3  29  50   -150.09187
  3  35  41   -150.09187
  3  62  44   -150.09187
  3  80  32   -150.09187
  3  89  20   -150.09187
  3  104  38   -150.09187
END PERIOD

BEGIN PERIOD 90
  3  29  50   -150.06905
  3  35  41   -150.06905
  3  62  44   -150.06905
  3  80  32   -150.06905
  3  89  20   -150.06905
  3  104  38   -150.06905
END PERIOD

BEGIN PERIOD 91
  3  29  50   -150.10815
  3  35  41   -150.10815
  3  62  44   -150.10815
  3  80  32   -150.10815
  3  89  20   -150.10815
  3  104  38   -150.10815
END PERIOD

BEGIN PERIOD 92
  3  29  50   -150.07370
  3  35  41   -150.07370
  3  62  44   -150.07370
  3  80  32   -150.07370
  3  89  20   -150.07370
  3  104  38   -150.07370
END PERIOD

BEGIN PERIOD 93
  3  29  50   -150.14551
  3  35  41   -150.14551
  3  62  44   -150.14551
  3  80  32   -150.14551
  3  89  20   -150.14551
  3  104  38   -150.14551
END PERIOD

BEGIN PERIOD 94
  3  29  50   -150.12790
  3  35  41   -150.12790
  3  62  44   -150.12790
  3  80  32   -150.12790
  3  89  20   -150.12790
  3  104  38   -150.12790
END PERIOD

BEGIN PERIOD 95
  3  29  50   -150.04813
  3  35  41   -150.04813
  3  62  44   -150.04813
  3  80  32   -150.04813
  3  89  20   -150.04813
  3  104  38   -150.04813
END PERIOD

BEGIN PERIOD 96
  3  29  50   -150.12233
  3  35  41   -150.12233
  3  62  44   -150.12233
  3  80  32   -150.12233
  3  89  20   -150.12233
  3  104  38   -150.12233
END PERIOD

BEGIN PERIOD 97
  3  29  50   -150.07146
  3  35  41   -150.07146
  3  62  44   -150.07146
  3  80  32   -150.07146
  3  89  20   -150.07146
  3  104  38   -150.07146
END PERIOD

BEGIN PERIOD 98
  3  29  50   -150.14215
  3  35  41   -150.14215
  3  62  44   -150.14215
  3  80  32   -150.14215
  3  89  20   -150.14215
  3  104  38   -150.14215
END PERIOD

BEGIN PERIOD 99
  3  29  50   -150.07385
  3  35  41   -150.07385
  3  62  44   -150.07385
  3  80  32   -150.07385
  3  89  20   -150.07385
  3  104  38   -150.07385
END PERIOD

BEGIN PERIOD 100
  3  29  50   -150.06514
  3  35  41   -150.06514
  3  62  44   -150.06514
  3  80  32   -150.06514
  3  89  20   -150.06514
  3  104  38   -150.06514
END PERIOD

BEGIN PERIOD 101
  3  29  50   -150.02394
  3  35  41   -150.02394
  3  62  44   -150.02394
  3  80  32   -150.02394
  3  89  20   -150.02394
  3  104  38   -150.02394
END PERIOD

BEGIN PERIOD 102
  3  29  50   -150.08043
  3  35  41   -150.08043
  3  62  44   -150.08043
  3  80  32   -150.08043
  3  89  20   -150.08043
  3  104  38   -150.08043
END PERIOD

BEGIN PERIOD 103
  3  29  50   -150.10945
  3  35  41   -150.10945
  3  62  44   -150.10945
  3  80  32   -150.10945
  3  89  20   -150.10945
  3  104  38   -150.10945
END PERIOD

BEGIN PERIOD 104
  3  29  50   -150.01436
  3  35  41   -150.01436
  3  62  44   -150.01436
  3  80  32   -150.01436
  3  89  20   -150.01436
  3  104  38   -150.01436
END PERIOD

BEGIN PERIOD 105
  3  29  50   -150.01110
  3  35  41   -150.01110
  3  62  44   -150.01110
  3  80  32   -150.01110
  3  89  20   -150.01110
  3  104  38   -150.01110
END PERIOD

BEGIN PERIOD 106
  3  29  50   -150.07550
  3  35  41   -150.07550
  3  62  44   -150.07550
  3  80  32   -150.07550
  3  89  20   -150.07550
  3  104  38   -150.07550
END PERIOD

BEGIN PERIOD 107
  3  29  50   -150.10625
  3  35  41   -150.10625
  3  62  44   -150.10625
  3  80  32   -150.10625
  3  89  20   -150.10625
  3  104  38   -150.10625
END PERIOD

BEGIN PERIOD 108
  3  29  50   -150.00623
  3  35  41   -150.00623
  3  62  44   -150.00623
  3  80  32   -150.00623
  3  89  20   -150.00623
  3  104  38   -150.00623
END PERIOD

BEGIN PERIOD 109
  3  29  50   -150.02977
  3  35  41   -150.02977
  3  62  44   -150.02977
  3  80  32   -150.02977
  3  89  20   -150.02977
  3  104  38   -150.02977
END PERIOD

BEGIN PERIOD 110
  3  29  50   -150.14984
  3  35  41   -150.14984
  3  62  44   -150.14984
  3  80  32   -150.14984
  3  89  20   -150.14984
  3  104  38   -150.14984
END PERIOD

BEGIN PERIOD 111
  3  29  50   -150.08096
  3  35  41   -150.08096
  3  62  44   -150.08096
  3  80  32   -150.08096
  3  89  20   -150.08096
  3  104  38   -150.08096
END PERIOD

BEGIN PERIOD 112
  3  29  50   -150.12004
  3  35  41   -150.12004
  3  62  44   -150.12004
  3  80  32   -150.12004
  3  89  20   -150.12004
  3  104  38   -150.12004
END PERIOD

BEGIN PERIOD 113
  3  29  50   -150.03229
  3  35  41   -150.03229
  3  62  44   -150.03229
  3  80  32   -150.03229
  3  89  20   -150.03229
  3  104  38   -150.03229
END PERIOD

BEGIN PERIOD 114
  3  29  50   -150.02310
  3  35  41   -150.02310
  3  62  44   -150.02310
  3  80  32   -150.02310
  3  89  20   -150.02310
  3  104  38   -150.02310
END PERIOD

BEGIN PERIOD 115
  3  29  50   -150.08500
  3  35  41   -150.08500
  3  62  44   -150.08500
  3  80  32   -150.08500
  3  89  20   -150.08500
  3  104  38   -150.08500
END PERIOD

BEGIN PERIOD 116
  3  29  50   -150.05647
  3  35  41   -150.05647
  3  62  44   -150.05647
  3  80  32   -150.05647
  3  89  20   -150.05647
  3  104  38   -150.05647
END PERIOD

BEGIN PERIOD 117
  3  29  50   -150.04285
  3  35  41   -150.04285
  3  62  44   -150.04285
  3  80  32   -150.04285
  3  89  20   -150.04285
  3  104  38   -150.04285
END PERIOD

BEGIN PERIOD 118
  3  29  50   -150.02806
  3  35  41   -150.02806
  3  62  44   -150.02806
  3  80  32   -150.02806
  3  89  20   -150.02806
  3  104  38   -150.02806
END PERIOD

BEGIN PERIOD 119
  3  29  50   -150.06335
  3  35  41   -150.06335
  3  62  44   -150.06335
  3  80  32   -150.06335
  3  89  20   -150.06335
  3  104  38   -150.06335
END PERIOD

BEGIN PERIOD 120
  3  29  50   -150.01239
  3  35  41   -150.01239
  3  62  44   -150.01239
  3  80  32   -150.01239
  3  89  20   -150.01239
  3  104  38   -150.01239
END PERIOD

BEGIN PERIOD 121
  3  29  50   -150.01697
  3  35  41   -150.01697
  3  62  44   -150.01697
  3  80  32   -150.01697
  3  89  20   -150.01697
  3  104  38   -150.01697
END PERIOD

BEGIN PERIOD 122
  3  29  50   -150.05708
  3  35  41   -150.05708
  3  62  44   -150.05708
  3  80  32   -150.05708
  3  89  20   -150.05708
  3  104  38   -150.05708
END PERIOD

BEGIN PERIOD 123
  3  29  50   -150.05060
  3  35  41   -150.05060
  3  62  44   -150.05060
  3  80  32   -150.05060
  3  89  20   -150.05060
  3  104  38   -150.05060
END PERIOD

BEGIN PERIOD 124
  3  29  50   -150.04175
  3  35  41   -150.04175
  3  62  44   -150.04175
  3  80  32   -150.04175
  3  89  20   -150.04175
  3  104  38   -150.04175
END PERIOD

BEGIN PERIOD 125
  3  29  50   -150.14384
  3  35  41   -150.14384
  3  62  44   -150.14384
  3  80  32   -150.14384
  3  89  20   -150.14384
  3  104  38   -150.14384
END PERIOD

BEGIN PERIOD 126
  3  29  50   -150.05278
  3  35  41   -150.05278
  3  62  44   -150.05278
  3  80  32   -150.05278
  3  89  20   -150.05278
  3  104  38   -150.05278
END PERIOD

BEGIN PERIOD 127
  3  29  50   -150.06403
  3  35  41   -150.06403
  3  62  44   -150.06403
  3  80  32   -150.06403
  3  89  20   -150.06403
  3  104  38   -150.06403
END PERIOD

BEGIN PERIOD 128
  3  29  50   -150.02911
  3  35  41   -150.02911
  3  62  44   -150.02911
  3  80  32   -150.02911
  3  89  20   -150.02911
  3  104  38   -150.02911
END PERIOD

BEGIN PERIOD 129
  3  29  50   -150.05206
  3  35  41   -150.05206
  3  62  44   -150.05206
  3  80  32   -150.05206
  3  89  20   -150.05206
  3  104  38   -150.05206
END PERIOD

BEGIN PERIOD 130
  3  29  50   -150.01906
  3  35  41   -150.01906
  3  62  44   -150.01906
  3  80  32   -150.01906
  3  89  20   -150.01906
  3  104  38   -150.01906
END PERIOD

BEGIN PERIOD 131
  3  29  50   -150.01404
  3  35  41   -150.01404
  3  62  44   -150.01404
  3  80  32   -150.01404
  3  89  20   -150.01404
  3  104  38   -150.01404
END PERIOD

BEGIN PERIOD 132
  3  29  50   -150.00668
  3  35  41   -150.00668
  3  62  44   -150.00668
  3  80  32   -150.00668
  3  89  20   -150.00668
  3  104  38   -150.00668
END PERIOD

BEGIN PERIOD 133
  3  29  50   -150.06679
  3  35  41   -150.06679
  3  62  44   -150.06679
  3  80  32   -150.06679
  3  89  20   -150.06679
  3  104  38   -150.06679
END PERIOD

BEGIN PERIOD 134
  3  29  50   -150.02386
  3  35  41   -150.02386
  3  62  44   -150.02386
  3  80  32   -150.02386
  3  89  20   -150.02386
  3  104  38   -150.02386
END PERIOD

BEGIN PERIOD 135
  3  29  50   -150.11392
  3  35  41   -150.11392
  3  62  44   -150.11392
  3  80  32   -150.11392
  3  89  20   -150.11392
  3  104  38   -150.11392
END PERIOD

BEGIN PERIOD 136
  3  29  50   -150.02992
  3  35  41   -150.02992
  3  62  44   -150.02992
  3  80  32   -150.02992
  3  89  20   -150.02992
  3  104  38   -150.02992
END PERIOD

BEGIN PERIOD 137
  3  29  50   -150.12804
  3  35  41   -150.12804
  3  62  44   -150.12804
  3  80  32   -150.12804
  3  89  20   -150.12804
  3  104  38   -150.12804
END PERIOD

BEGIN PERIOD 138
  3  29  50   -150.06256
  3  35  41   -150.06256
  3  62  44   -150.06256
  3  80  32   -150.06256
  3  89  20   -150.06256
  3  104  38   -150.06256
END PERIOD

BEGIN PERIOD 139
  3  29  50   -150.06259
  3  35  41   -150.06259
  3  62  44   -150.06259
  3  80  32   -150.06259
  3  89  20   -150.06259
  3  104  38   -150.06259
END PERIOD

BEGIN PERIOD 140
  3  29  50   -150.01396
  3  35  41   -150.01396
  3  62  44   -150.01396
  3  80  32   -150.01396
  3  89  20   -150.01396
  3  104  38   -150.01396
END PERIOD

BEGIN PERIOD 141
  3  29  50   -150.04622
  3  35  41   -150.04622
  3  62  44   -150.04622
  3  80  32   -150.04622
  3  89  20   -150.04622
  3  104  38   -150.04622
END PERIOD

BEGIN PERIOD 142
  3  29  50   -150.06720
  3  35  41   -150.06720
  3  62  44   -150.06720
  3  80  32   -150.06720
  3  89  20   -150.06720
  3  104  38   -150.06720
END PERIOD

BEGIN PERIOD 143
  3  29  50   -150.06436
  3  35  41   -150.06436
  3  62  44   -150.06436
  3  80  32   -150.06436
  3  89  20   -150.06436
  3  104  38   -150.06436
END PERIOD

BEGIN PERIOD 144
  3  29  50   -150.08853
  3  35  41   -150.08853
  3  62  44   -150.08853
  3  80  32   -150.08853
  3  89  20   -150.08853
  3  104  38   -150.08853
END PERIOD

BEGIN PERIOD 145
  3  29  50   -150.13275
  3  35  41   -150.13275
  3  62  44   -150.13275
  3  80  32   -150.13275
  3  89  20   -150.13275
  3  104  38   -150.13275
END PERIOD

BEGIN PERIOD 146
  3  29  50   -150.10522
  3  35  41   -150.10522
  3  62  44   -150.10522
  3  80  32   -150.10522
  3  89  20   -150.10522
  3  104  38   -150.10522
END PERIOD

BEGIN PERIOD 147
  3  29  50   -150.02173
  3  35  41   -150.02173
  3  62  44   -150.02173
  3  80  32   -150.02173
  3  89  20   -150.02173
  3  104  38   -150.02173
END PERIOD

BEGIN PERIOD 148
  3  29  50   -150.14150
  3  35  41   -150.14150
  3  62  44   -150.14150
  3  80  32   -150.14150
  3  89  20   -150.14150
  3  104  38   -150.14150
END PERIOD

BEGIN PERIOD 149
  3  29  50   -150.14627
  3  35  41   -150.14627
  3  62  44   -150.14627
  3  80  32   -150.14627
  3  89  20   -150.14627
  3  104  38   -150.14627
END PERIOD

BEGIN PERIOD 150
  3  29  50   -150.02600
  3  35  41   -150.02600
  3  62  44   -150.02600
  3  80  32   -150.02600
  3  89  20   -150.02600
  3  104  38   -150.02600
END PERIOD

BEGIN PERIOD 151
  3  29  50   -150.08127
  3  35  41   -150.08127
  3  62  44   -150.08127
  3  80  32   -150.08127
  3  89  20   -150.08127
  3  104  38   -150.08127
END PERIOD

BEGIN PERIOD 152
  3  29  50   -150.02983
  3  35  41   -150.02983
  3  62  44   -150.02983
  3  80  32   -150.02983
  3  89  20   -150.02983
  3  104  38   -150.02983
END PERIOD

BEGIN PERIOD 153
  3  29  50   -150.09082
  3  35  41   -150.09082
  3  62  44   -150.09082
  3  80  32   -150.09082
  3  89  20   -150.09082
  3  104  38   -150.09082
END PERIOD

BEGIN PERIOD 154
  3  29  50   -150.08362
  3  35  41   -150.08362
  3  62  44   -150.08362
  3  80  32   -150.08362
  3  89  20   -150.08362
  3  104  38   -150.08362
END PERIOD

BEGIN PERIOD 155
  3  29  50   -150.14460
  3  35  41   -150.14460
  3  62  44   -150.14460
  3  80  32   -150.14460
  3  89  20   -150.14460
  3  104  38   -150.14460
END PERIOD

BEGIN PERIOD 156
  3  29  50   -150.03770
  3  35  41   -150.03770
  3  62  44   -150.03770
  3  80  32   -150.03770
  3  89  20   -150.03770
  3  104  38   -150.03770
END PERIOD

BEGIN PERIOD 157
  3  29  50   -150.05551
  3  35  41   -150.05551
  3  62  44   -150.05551
  3  80  32   -150.05551
  3  89  20   -150.05551
  3  104  38   -150.05551
END PERIOD

BEGIN PERIOD 158
  3  29  50   -150.09430
  3  35  41   -150.09430
  3  62  44   -150.09430
  3  80  32   -150.09430
  3  89  20   -150.09430
  3  104  38   -150.09430
END PERIOD

BEGIN PERIOD 159
  3  29  50   -150.04085
  3  35  41   -150.04085
  3  62  44   -150.04085
  3  80  32   -150.04085
  3  89  20   -150.04085
  3  104  38   -150.04085
END PERIOD

BEGIN PERIOD 160
  3  29  50   -150.12358
  3  35  41   -150.12358
  3  62  44   -150.12358
  3  80  32   -150.12358
  3  89  20   -150.12358
  3  104  38   -150.12358
END PERIOD

BEGIN PERIOD 161
  3  29  50   -150.14096
  3  35  41   -150.14096
  3  62  44   -150.14096
  3  80  32   -150.14096
  3  89  20   -150.14096
  3  104  38   -150.14096
END PERIOD

BEGIN PERIOD 162
  3  29  50   -150.10185
  3  35  41   -150.10185
  3  62  44   -150.10185
  3  80  32   -150.10185
  3  89  20   -150.10185
  3  104  38   -150.10185
END PERIOD

BEGIN PERIOD 163
  3  29  50   -150.02357
  3  35  41   -150.02357
  3  62  44   -150.02357
  3  80  32   -150.02357
  3  89  20   -150.02357
  3  104  38   -150.02357
END PERIOD

BEGIN PERIOD 164
  3  29  50   -150.04747
  3  35  41   -150.04747
  3  62  44   -150.04747
  3  80  32   -150.04747
  3  89  20   -150.04747
  3  104  38   -150.04747
END PERIOD

BEGIN PERIOD 165
  3  29  50   -150.06104
  3  35  41   -150.06104
  3  62  44   -150.06104
  3  80  32   -150.06104
  3  89  20   -150.06104
  3  104  38   -150.06104
END PERIOD

BEGIN PERIOD 166
  3  29  50   -150.14809
  3  35  41   -150.14809
  3  62  44   -150.14809
  3  80  32   -150.14809
  3  89  20   -150.14809
  3  104  38   -150.14809
END PERIOD

BEGIN PERIOD 167
  3  29  50   -150.01715