# RCH6 input file, prepared by MF5to6 on 6/30/2020 at 9:41:13.

BEGIN Options
  READASARRAYS
END Options

BEGIN PERIOD 1
  RECHARGE
    CONSTANT   0.10000000E-03
END PERIOD

BEGIN PERIOD 2
  RECHARGE
    CONSTANT   0.10002190E-03
END PERIOD

BEGIN PERIOD 3
  RECHARGE
    CONSTANT   0.10010820E-03
END PERIOD

BEGIN PERIOD 4
  RECHARGE
    CONSTANT   0.10011070E-03
END PERIOD

BEGIN PERIOD 5
  RECHARGE
    CONSTANT   0.10006190E-03
END PERIOD

BEGIN PERIOD 6
  RECHARGE
    CONSTANT   0.10012260E-03
END PERIOD

BEGIN PERIOD 7
  RECHARGE
    CONSTANT   0.10011440E-03
END PERIOD

BEGIN PERIOD 8
  RECHARGE
    CONSTANT   0.10016100E-03
END PERIOD

BEGIN PERIOD 9
  RECHARGE
    CONSTANT   0.10009690E-03
END PERIOD

BEGIN PERIOD 10
  RECHARGE
    CONSTANT   0.10019090E-03
END PERIOD

BEGIN PERIOD 11
  RECHARGE
    CONSTANT   0.10009870E-03
END PERIOD

BEGIN PERIOD 12
  RECHARGE
    CONSTANT   0.10006060E-03
END PERIOD

BEGIN PERIOD 13
  RECHARGE
    CONSTANT   0.10012850E-03
END PERIOD

BEGIN PERIOD 14
  RECHARGE
    CONSTANT   0.10005110E-03
END PERIOD

BEGIN PERIOD 15
  RECHARGE
    CONSTANT   0.10009350E-03
END PERIOD

BEGIN PERIOD 16
  RECHARGE
    CONSTANT   0.10004470E-03
END PERIOD

BEGIN PERIOD 17
  RECHARGE
    CONSTANT   0.10009630E-03
END PERIOD

BEGIN PERIOD 18
  RECHARGE
    CONSTANT   0.10006770E-03
END PERIOD

BEGIN PERIOD 19
  RECHARGE
    CONSTANT   0.10009830E-03
END PERIOD

BEGIN PERIOD 20
  RECHARGE
    CONSTANT   0.10010640E-03
END PERIOD

BEGIN PERIOD 21
  RECHARGE
    CONSTANT   0.10017800E-03
END PERIOD

BEGIN PERIOD 22
  RECHARGE
    CONSTANT   0.10001320E-03
END PERIOD

BEGIN PERIOD 23
  RECHARGE
    CONSTANT   0.10003210E-03
END PERIOD

BEGIN PERIOD 24
  RECHARGE
    CONSTANT   0.10005770E-03
END PERIOD

BEGIN PERIOD 25
  RECHARGE
    CONSTANT   0.10013930E-03
END PERIOD

BEGIN PERIOD 26
  RECHARGE
    CONSTANT   0.10011270E-03
END PERIOD

BEGIN PERIOD 27
  RECHARGE
    CONSTANT   0.10004480E-03
END PERIOD

BEGIN PERIOD 28
  RECHARGE
    CONSTANT   0.10009390E-03
END PERIOD

BEGIN PERIOD 29
  RECHARGE
    CONSTANT   0.10017460E-03
END PERIOD

BEGIN PERIOD 30
  RECHARGE
    CONSTANT   0.10013630E-03
END PERIOD

BEGIN PERIOD 31
  RECHARGE
    CONSTANT   0.10009440E-03
END PERIOD

BEGIN PERIOD 32
  RECHARGE
    CONSTANT   0.10014230E-03
END PERIOD

BEGIN PERIOD 33
  RECHARGE
    CONSTANT   0.10017030E-03
END PERIOD

BEGIN PERIOD 34
  RECHARGE
    CONSTANT   0.10005880E-03
END PERIOD

BEGIN PERIOD 35
  RECHARGE
    CONSTANT   0.10013040E-03
END PERIOD

BEGIN PERIOD 36
  RECHARGE
    CONSTANT   0.10001920E-03
END PERIOD

BEGIN PERIOD 37
  RECHARGE
    CONSTANT   0.10009080E-03
END PERIOD

BEGIN PERIOD 38
  RECHARGE
    CONSTANT   0.10009970E-03
END PERIOD

BEGIN PERIOD 39
  RECHARGE
    CONSTANT   0.10012640E-03
END PERIOD

BEGIN PERIOD 40
  RECHARGE
    CONSTANT   0.10004180E-03
END PERIOD

BEGIN PERIOD 41
  RECHARGE
    CONSTANT   0.10012040E-03
END PERIOD

BEGIN PERIOD 42
  RECHARGE
    CONSTANT   0.10008860E-03
END PERIOD

BEGIN PERIOD 43
  RECHARGE
    CONSTANT   0.10004930E-03
END PERIOD

BEGIN PERIOD 44
  RECHARGE
    CONSTANT   0.10012250E-03
END PERIOD

BEGIN PERIOD 45
  RECHARGE
    CONSTANT   0.10004440E-03
END PERIOD

BEGIN PERIOD 46
  RECHARGE
    CONSTANT   0.10012390E-03
END PERIOD

BEGIN PERIOD 47
  RECHARGE
    CONSTANT   0.10009250E-03
END PERIOD

BEGIN PERIOD 48
  RECHARGE
    CONSTANT   0.10009820E-03
END PERIOD

BEGIN PERIOD 49
  RECHARGE
    CONSTANT   0.10013710E-03
END PERIOD

BEGIN PERIOD 50
  RECHARGE
    CONSTANT   0.10009130E-03
END PERIOD

BEGIN PERIOD 51
  RECHARGE
    CONSTANT   0.10007880E-03
END PERIOD

BEGIN PERIOD 52
  RECHARGE
    CONSTANT   0.10012870E-03
END PERIOD

BEGIN PERIOD 53
  RECHARGE
    CONSTANT   0.10006230E-03
END PERIOD

BEGIN PERIOD 54
  RECHARGE
    CONSTANT   0.10016190E-03
END PERIOD

BEGIN PERIOD 55
  RECHARGE
    CONSTANT   0.10015410E-03
END PERIOD

BEGIN PERIOD 56
  RECHARGE
    CONSTANT   0.10009880E-03
END PERIOD

BEGIN PERIOD 57
  RECHARGE
    CONSTANT   0.10010490E-03
END PERIOD

BEGIN PERIOD 58
  RECHARGE
    CONSTANT   0.10002660E-03
END PERIOD

BEGIN PERIOD 59
  RECHARGE
    CONSTANT   0.10010090E-03
END PERIOD

BEGIN PERIOD 60
  RECHARGE
    CONSTANT   0.10004410E-03
END PERIOD

BEGIN PERIOD 61
  RECHARGE
    CONSTANT   0.10008590E-03
END PERIOD

BEGIN PERIOD 62
  RECHARGE
    CONSTANT   0.10005840E-03
END PERIOD

BEGIN PERIOD 63
  RECHARGE
    CONSTANT   0.10006440E-03
END PERIOD

BEGIN PERIOD 64
  RECHARGE
    CONSTANT   0.10014390E-03
END PERIOD

BEGIN PERIOD 65
  RECHARGE
    CONSTANT   0.10008760E-03
END PERIOD

BEGIN PERIOD 66
  RECHARGE
    CONSTANT   0.10015840E-03
END PERIOD

BEGIN PERIOD 67
  RECHARGE
    CONSTANT   0.10011410E-03
END PERIOD

BEGIN PERIOD 68
  RECHARGE
    CONSTANT   0.10006260E-03
END PERIOD

BEGIN PERIOD 69
  RECHARGE
    CONSTANT   0.10014530E-03
END PERIOD

BEGIN PERIOD 70
  RECHARGE
    CONSTANT   0.10008560E-03
END PERIOD

BEGIN PERIOD 71
  RECHARGE
    CONSTANT   0.10005180E-03
END PERIOD

BEGIN PERIOD 72
  RECHARGE
    CONSTANT   0.10010320E-03
END PERIOD

BEGIN PERIOD 73
  RECHARGE
    CONSTANT   0.10009340E-03
END PERIOD

BEGIN PERIOD 74
  RECHARGE
    CONSTANT   0.10010550E-03
END PERIOD

BEGIN PERIOD 75
  RECHARGE
    CONSTANT   0.10018000E-03
END PERIOD

BEGIN PERIOD 76
  RECHARGE
    CONSTANT   0.10010730E-03
END PERIOD

BEGIN PERIOD 77
  RECHARGE
    CONSTANT   0.10012530E-03
END PERIOD

BEGIN PERIOD 78
  RECHARGE
    CONSTANT   0.10014430E-03
END PERIOD

BEGIN PERIOD 79
  RECHARGE
    CONSTANT   0.10005680E-03
END PERIOD

BEGIN PERIOD 80
  RECHARGE
    CONSTANT   0.10010620E-03
END PERIOD

BEGIN PERIOD 81
  RECHARGE
    CONSTANT   0.10018990E-03
END PERIOD

BEGIN PERIOD 82
  RECHARGE
    CONSTANT   0.10009120E-03
END PERIOD

BEGIN PERIOD 83
  RECHARGE
    CONSTANT   0.10000330E-03
END PERIOD

BEGIN PERIOD 84
  RECHARGE
    CONSTANT   0.10017600E-03
END PERIOD

BEGIN PERIOD 85
  RECHARGE
    CONSTANT   0.10007950E-03
END PERIOD

BEGIN PERIOD 86
  RECHARGE
    CONSTANT   0.10008110E-03
END PERIOD

BEGIN PERIOD 87
  RECHARGE
    CONSTANT   0.10010360E-03
END PERIOD

BEGIN PERIOD 88
  RECHARGE
    CONSTANT   0.10004140E-03
END PERIOD

BEGIN PERIOD 89
  RECHARGE
    CONSTANT   0.10014390E-03
END PERIOD

BEGIN PERIOD 90
  RECHARGE
    CONSTANT   0.10004690E-03
END PERIOD

BEGIN PERIOD 91
  RECHARGE
    CONSTANT   0.10004220E-03
END PERIOD

BEGIN PERIOD 92
  RECHARGE
    CONSTANT   0.10003090E-03
END PERIOD

BEGIN PERIOD 93
  RECHARGE
    CONSTANT   0.10013150E-03
END PERIOD

BEGIN PERIOD 94
  RECHARGE
    CONSTANT   0.10010920E-03
END PERIOD

BEGIN PERIOD 95
  RECHARGE
    CONSTANT   0.10000690E-03
END PERIOD

BEGIN PERIOD 96
  RECHARGE
    CONSTANT   0.10016870E-03
END PERIOD

BEGIN PERIOD 97
  RECHARGE
    CONSTANT   0.10011060E-03
END PERIOD

BEGIN PERIOD 98
  RECHARGE
    CONSTANT   0.10009630E-03
END PERIOD

BEGIN PERIOD 99
  RECHARGE
    CONSTANT   0.10013170E-03
END PERIOD

BEGIN PERIOD 100
  RECHARGE
    CONSTANT   0.10016650E-03
END PERIOD

BEGIN PERIOD 101
  RECHARGE
    CONSTANT   0.10012800E-03
END PERIOD

BEGIN PERIOD 102
  RECHARGE
    CONSTANT   0.10005380E-03
END PERIOD

BEGIN PERIOD 103
  RECHARGE
    CONSTANT   0.10012220E-03
END PERIOD

BEGIN PERIOD 104
  RECHARGE
    CONSTANT   0.10014670E-03
END PERIOD

BEGIN PERIOD 105
  RECHARGE
    CONSTANT   0.10007600E-03
END PERIOD

BEGIN PERIOD 106
  RECHARGE
    CONSTANT   0.10013630E-03
END PERIOD

BEGIN PERIOD 107
  RECHARGE
    CONSTANT   0.10002490E-03
END PERIOD

BEGIN PERIOD 108
  RECHARGE
    CONSTANT   0.10005390E-03
END PERIOD

BEGIN PERIOD 109
  RECHARGE
    CONSTANT   0.10011180E-03
END PERIOD

BEGIN PERIOD 110
  RECHARGE
    CONSTANT   0.10003320E-03
END PERIOD

BEGIN PERIOD 111
  RECHARGE
    CONSTANT   0.10003760E-03
END PERIOD

BEGIN PERIOD 112
  RECHARGE
    CONSTANT   0.10010700E-03
END PERIOD

BEGIN PERIOD 113
  RECHARGE
    CONSTANT   0.10015380E-03
END PERIOD

BEGIN PERIOD 114
  RECHARGE
    CONSTANT   0.10006010E-03
END PERIOD

BEGIN PERIOD 115
  RECHARGE
    CONSTANT   0.10009620E-03
END PERIOD

BEGIN PERIOD 116
  RECHARGE
    CONSTANT   0.10002470E-03
END PERIOD

BEGIN PERIOD 117
  RECHARGE
    CONSTANT   0.10007800E-03
END PERIOD

BEGIN PERIOD 118
  RECHARGE
    CONSTANT   0.10011090E-03
END PERIOD

BEGIN PERIOD 119
  RECHARGE
    CONSTANT   0.10010060E-03
END PERIOD

BEGIN PERIOD 120
  RECHARGE
    CONSTANT   0.10005970E-03
END PERIOD

BEGIN PERIOD 121
  RECHARGE
    CONSTANT   0.10015400E-03
END PERIOD

BEGIN PERIOD 122
  RECHARGE
    CONSTANT   0.10005420E-03
END PERIOD

BEGIN PERIOD 123
  RECHARGE
    CONSTANT   0.10007510E-03
END PERIOD

BEGIN PERIOD 124
  RECHARGE
    CONSTANT   0.10006370E-03
END PERIOD

BEGIN PERIOD 125
  RECHARGE
    CONSTANT   0.10009590E-03
END PERIOD

BEGIN PERIOD 126
  RECHARGE
    CONSTANT   0.10006830E-03
END PERIOD

BEGIN PERIOD 127
  RECHARGE
    CONSTANT   0.10013860E-03
END PERIOD

BEGIN PERIOD 128
  RECHARGE
    CONSTANT   0.10010650E-03
END PERIOD

BEGIN PERIOD 129
  RECHARGE
    CONSTANT   0.10006500E-03
END PERIOD

BEGIN PERIOD 130
  RECHARGE
    CONSTANT   0.10015550E-03
END PERIOD

BEGIN PERIOD 131
  RECHARGE
    CONSTANT   0.10007010E-03
END PERIOD

BEGIN PERIOD 132
  RECHARGE
    CONSTANT   0.10006800E-03
END PERIOD

BEGIN PERIOD 133
  RECHARGE
    CONSTANT   0.10005930E-03
END PERIOD

BEGIN PERIOD 134
  RECHARGE
    CONSTANT   0.10012960E-03
END PERIOD

BEGIN PERIOD 135
  RECHARGE
    CONSTANT   0.10004760E-03
END PERIOD

BEGIN PERIOD 136
  RECHARGE
    CONSTANT   0.10014140E-03
END PERIOD

BEGIN PERIOD 137
  RECHARGE
    CONSTANT   0.10006070E-03
END PERIOD

BEGIN PERIOD 138
  RECHARGE
    CONSTANT   0.10011570E-03
END PERIOD

BEGIN PERIOD 139
  RECHARGE
    CONSTANT   0.10008590E-03
END PERIOD

BEGIN PERIOD 140
  RECHARGE
    CONSTANT   0.10012250E-03
END PERIOD

BEGIN PERIOD 141
  RECHARGE
    CONSTANT   0.10007820E-03
END PERIOD

BEGIN PERIOD 142
  RECHARGE
    CONSTANT   0.10005980E-03
END PERIOD

BEGIN PERIOD 143
  RECHARGE
    CONSTANT   0.10006760E-03
END PERIOD

BEGIN PERIOD 144
  RECHARGE
    CONSTANT   0.10008440E-03
END PERIOD

BEGIN PERIOD 145
  RECHARGE
    CONSTANT   0.10005730E-03
END PERIOD

BEGIN PERIOD 146
  RECHARGE
    CONSTANT   0.10011750E-03
END PERIOD

BEGIN PERIOD 147
  RECHARGE
    CONSTANT   0.10013350E-03
END PERIOD

BEGIN PERIOD 148
  RECHARGE
    CONSTANT   0.10009330E-03
END PERIOD

BEGIN PERIOD 149
  RECHARGE
    CONSTANT   0.10018840E-03
END PERIOD

BEGIN PERIOD 150
  RECHARGE
    CONSTANT   0.10009660E-03
END PERIOD

BEGIN PERIOD 151
  RECHARGE
    CONSTANT   0.10006800E-03
END PERIOD

BEGIN PERIOD 152
  RECHARGE
    CONSTANT   0.10000680E-03
END PERIOD

BEGIN PERIOD 153
  RECHARGE
    CONSTANT   0.10002610E-03
END PERIOD

BEGIN PERIOD 154
  RECHARGE
    CONSTANT   0.10015070E-03
END PERIOD

BEGIN PERIOD 155
  RECHARGE
    CONSTANT   0.10014530E-03
END PERIOD

BEGIN PERIOD 156
  RECHARGE
    CONSTANT   0.10007680E-03
END PERIOD

BEGIN PERIOD 157
  RECHARGE
    CONSTANT   0.10016350E-03
END PERIOD

BEGIN PERIOD 158
  RECHARGE
    CONSTANT   0.10012110E-03
END PERIOD

BEGIN PERIOD 159
  RECHARGE
    CONSTANT   0.10018780E-03
END PERIOD

BEGIN PERIOD 160
  RECHARGE
    CONSTANT   0.10004040E-03
END PERIOD

BEGIN PERIOD 161
  RECHARGE
    CONSTANT   0.10009610E-03
END PERIOD

BEGIN PERIOD 162
  RECHARGE
    CONSTANT   0.10009410E-03
END PERIOD

BEGIN PERIOD 163
  RECHARGE
    CONSTANT   0.10011650E-03
END PERIOD

BEGIN PERIOD 164
  RECHARGE
    CONSTANT   0.10009990E-03
END PERIOD

BEGIN PERIOD 165
  RECHARGE
    CONSTANT   0.10006980E-03
END PERIOD

BEGIN PERIOD 166
  RECHARGE
    CONSTANT   0.10009750E-03
END PERIOD

BEGIN PERIOD 167
  RECHARGE
    CONSTANT   0.10004320E-03
END PERIOD

BEGIN PERIOD 168
  RECHARGE
    CONSTANT   0.10000610E-03
END PERIOD

BEGIN PERIOD 169
  RECHARGE
    CONSTANT   0.10007810E-03
END PERIOD

BEGIN PERIOD 170
  RECHARGE
    CONSTANT   0.10010260E-03
END PERIOD

BEGIN PERIOD 171
  RECHARGE
    CONSTANT   0.10003970E-03
END PERIOD

BEGIN PERIOD 172
  RECHARGE
    CONSTANT   0.10014790E-03
END PERIOD

BEGIN PERIOD 173
  RECHARGE
    CONSTANT   0.10012780E-03
END PERIOD

BEGIN PERIOD 174
  RECHARGE
    CONSTANT   0.10001290E-03
END PERIOD

BEGIN PERIOD 175
  RECHARGE
    CONSTANT   0.10011690E-03
END PERIOD

BEGIN PERIOD 176
  RECHARGE
    CONSTANT   0.10006770E-03
END PERIOD

BEGIN PERIOD 177
  RECHARGE
    CONSTANT   0.10007960E-03
END PERIOD

BEGIN PERIOD 178
  RECHARGE
    CONSTANT   0.10005910E-03
END PERIOD

BEGIN PERIOD 179
  RECHARGE
    CONSTANT   0.10008410E-03
END PERIOD

BEGIN PERIOD 180
  RECHARGE
    CONSTANT   0.10010510E-03
END PERIOD

BEGIN PERIOD 181
  RECHARGE
    CONSTANT   0.10017590E-03
END PERIOD

BEGIN PERIOD 182
  RECHARGE
    CONSTANT   0.10008010E-03
END PERIOD

BEGIN PERIOD 183
  RECHARGE
    CONSTANT   0.10008060E-03
END PERIOD

BEGIN PERIOD 184
  RECHARGE
    CONSTANT   0.10015880E-03
END PERIOD

BEGIN PERIOD 185
  RECHARGE
    CONSTANT   0.10003360E-03
END PERIOD

BEGIN PERIOD 186
  RECHARGE
    CONSTANT   0.10004810E-03
END PERIOD

BEGIN PERIOD 187
  RECHARGE
    CONSTANT   0.10013100E-03
END PERIOD

BEGIN PERIOD 188
  RECHARGE
    CONSTANT   0.10010280E-03
END PERIOD

BEGIN PERIOD 189
  RECHARGE
    CONSTANT   0.10012550E-03
END PERIOD

BEGIN PERIOD 190
  RECHARGE
    CONSTANT   0.10013220E-03
END PERIOD

BEGIN PERIOD 191
  RECHARGE
    CONSTANT   0.10014640E-03
END PERIOD

BEGIN PERIOD 192
  RECHARGE
    CONSTANT   0.10015400E-03
END PERIOD

BEGIN PERIOD 193
  RECHARGE
    CONSTANT   0.10006690E-03
END PERIOD

BEGIN PERIOD 194
  RECHARGE
    CONSTANT   0.10003450E-03
END PERIOD

BEGIN PERIOD 195
  RECHARGE
    CONSTANT   0.10017560E-03
END PERIOD

BEGIN PERIOD 196
  RECHARGE
    CONSTANT   0.10008590E-03
END PERIOD

BEGIN PERIOD 197
  RECHARGE
    CONSTANT   0.10005900E-03
END PERIOD

BEGIN PERIOD 198
  RECHARGE
    CONSTANT   0.10002640E-03
END PERIOD

BEGIN PERIOD 199
  RECHARGE
    CONSTANT   0.10012130E-03
END PERIOD

BEGIN PERIOD 200
  RECHARGE
    CONSTANT   0.10010740E-03
END PERIOD

BEGIN PERIOD 201
  RECHARGE
    CONSTANT   0.10005820E-03
END PERIOD

BEGIN PERIOD 202
  RECHARGE
    CONSTANT   0.10009240E-03
END PERIOD

BEGIN PERIOD 203
  RECHARGE
    CONSTANT   0.10007790E-03
END PERIOD

BEGIN PERIOD 204
  RECHARGE
    CONSTANT   0.10010450E-03
END PERIOD

BEGIN PERIOD 205
  RECHARGE
    CONSTANT   0.10008750E-03
END PERIOD

BEGIN PERIOD 206
  RECHARGE
    CONSTANT   0.10012710E-03
END PERIOD

BEGIN PERIOD 207
  RECHARGE
    CONSTANT   0.10008000E-03
END PERIOD

BEGIN PERIOD 208
  RECHARGE
    CONSTANT   0.10005080E-03
END PERIOD

BEGIN PERIOD 209
  RECHARGE
    CONSTANT   0.10012100E-03
END PERIOD

BEGIN PERIOD 210
  RECHARGE
    CONSTANT   0.10009660E-03
END PERIOD

BEGIN PERIOD 211
  RECHARGE
    CONSTANT   0.10005050E-03
END PERIOD

BEGIN PERIOD 212
  RECHARGE
    CONSTANT   0.10006350E-03
END PERIOD

BEGIN PERIOD 213
  RECHARGE
    CONSTANT   0.10007620E-03
END PERIOD

BEGIN PERIOD 214
  RECHARGE
    CONSTANT   0.10012240E-03
END PERIOD

BEGIN PERIOD 215
  RECHARGE
    CONSTANT   0.10010680E-03
END PERIOD

BEGIN PERIOD 216
  RECHARGE
    CONSTANT   0.10008710E-03
END PERIOD

BEGIN PERIOD 217
  RECHARGE
    CONSTANT   0.10005430E-03
END PERIOD

BEGIN PERIOD 218
  RECHARGE
    CONSTANT   0.10004730E-03
END PERIOD

BEGIN PERIOD 219
  RECHARGE
    CONSTANT   0.10009700E-03
END PERIOD

BEGIN PERIOD 220
  RECHARGE
    CONSTANT   0.10007470E-03
END PERIOD

BEGIN PERIOD 221
  RECHARGE
    CONSTANT   0.10008580E-03
END PERIOD

BEGIN PERIOD 222
  RECHARGE
    CONSTANT   0.10013600E-03
END PERIOD

BEGIN PERIOD 223
  RECHARGE
    CONSTANT   0.10003810E-03
END PERIOD

BEGIN PERIOD 224
  RECHARGE
    CONSTANT   0.10006850E-03
END PERIOD

BEGIN PERIOD 225
  RECHARGE
    CONSTANT   0.10011870E-03
END PERIOD

BEGIN PERIOD 226
  RECHARGE
    CONSTANT   0.10010950E-03
END PERIOD

BEGIN PERIOD 227
  RECHARGE
    CONSTANT   0.10011120E-03
END PERIOD

BEGIN PERIOD 228
  RECHARGE
    CONSTANT   0.10017540E-03
END PERIOD

BEGIN PERIOD 229
  RECHARGE
    CONSTANT   0.10013820E-03
END PERIOD

BEGIN PERIOD 230
  RECHARGE
    CONSTANT   0.10013720E-03
END PERIOD

BEGIN PERIOD 231
  RECHARGE
    CONSTANT   0.10002950E-03
END PERIOD

BEGIN PERIOD 232
  RECHARGE
    CONSTANT   0.10006520E-03
END PERIOD

BEGIN PERIOD 233
  RECHARGE
    CONSTANT   0.10013020E-03
END PERIOD

BEGIN PERIOD 234
  RECHARGE
    CONSTANT   0.10007430E-03
END PERIOD

BEGIN PERIOD 235
  RECHARGE
    CONSTANT   0.10017030E-03
END PERIOD

BEGIN PERIOD 236
  RECHARGE
    CONSTANT   0.10011040E-03
END PERIOD

BEGIN PERIOD 237
  RECHARGE
    CONSTANT   0.10002800E-03
END PERIOD

BEGIN PERIOD 238
  RECHARGE
    CONSTANT   0.10010650E-03
END PERIOD

BEGIN PERIOD 239
  RECHARGE
    CONSTANT   0.10004650E-03
END PERIOD

BEGIN PERIOD 240
  RECHARGE
    CONSTANT   0.10013820E-03
END PERIOD

BEGIN PERIOD 241
  RECHARGE
    CONSTANT   0.10009460E-03
END PERIOD

BEGIN PERIOD 242
  RECHARGE
    CONSTANT   0.10004230E-03
END PERIOD

BEGIN PERIOD 243
  RECHARGE
    CONSTANT   0.10012100E-03
END PERIOD

BEGIN PERIOD 244
  RECHARGE
    CONSTANT   0.10005310E-03
END PERIOD

BEGIN PERIOD 245
  RECHARGE
    CONSTANT   0.10010190E-03
END PERIOD

BEGIN PERIOD 246
  RECHARGE
    CONSTANT   0.10008690E-03
END PERIOD

BEGIN PERIOD 247
  RECHARGE
    CONSTANT   0.10015200E-03
END PERIOD

BEGIN PERIOD 248
  RECHARGE
    CONSTANT   0.10006740E-03
END PERIOD

BEGIN PERIOD 249
  RECHARGE
    CONSTANT   0.10012670E-03
END PERIOD

BEGIN PERIOD 250
  RECHARGE
    CONSTANT   0.10011960E-03
END PERIOD

BEGIN PERIOD 251
  RECHARGE
    CONSTANT   0.10008800E-03
END PERIOD

BEGIN PERIOD 252
  RECHARGE
    CONSTANT   0.10012000E-03
END PERIOD

BEGIN PERIOD 253
  RECHARGE
    CONSTANT   0.10007190E-03
END PERIOD

BEGIN PERIOD 254
  RECHARGE
    CONSTANT   0.10009750E-03
END PERIOD

BEGIN PERIOD 255
  RECHARGE
    CONSTANT   0.10016600E-03
END PERIOD

BEGIN PERIOD 256
  RECHARGE
    CONSTANT   0.10009050E-03
END PERIOD

BEGIN PERIOD 257
  RECHARGE
    CONSTANT   0.10009940E-03
END PERIOD

BEGIN PERIOD 258
  RECHARGE
    CONSTANT   0.10011670E-03
END PERIOD

BEGIN PERIOD 259
  RECHARGE
    CONSTANT   0.10007180E-03
END PERIOD

BEGIN PERIOD 260
  RECHARGE
    CONSTANT   0.10005680E-03
END PERIOD

BEGIN PERIOD 261
  RECHARGE
    CONSTANT   0.10013240E-03
END PERIOD

BEGIN PERIOD 262
  RECHARGE
    CONSTANT   0.10007620E-03
END PERIOD

BEGIN PERIOD 263
  RECHARGE
    CONSTANT   0.10008160E-03
END PERIOD

BEGIN PERIOD 264
  RECHARGE
    CONSTANT   0.10015950E-03
END PERIOD

BEGIN PERIOD 265
  RECHARGE
    CONSTANT   0.10014180E-03
END PERIOD

BEGIN PERIOD 266
  RECHARGE
    CONSTANT   0.10014050E-03
END PERIOD

BEGIN PERIOD 267
  RECHARGE
    CONSTANT   0.10013190E-03
END PERIOD

BEGIN PERIOD 268
  RECHARGE
    CONSTANT   0.10003180E-03
END PERIOD

BEGIN PERIOD 269
  RECHARGE
    CONSTANT   0.10008050E-03
END PERIOD

BEGIN PERIOD 270
  RECHARGE
    CONSTANT   0.10001490E-03
END PERIOD

BEGIN PERIOD 271
  RECHARGE
    CONSTANT   0.10007190E-03
END PERIOD

BEGIN PERIOD 272
  RECHARGE
    CONSTANT   0.10009710E-03
END PERIOD

BEGIN PERIOD 273
  RECHARGE
    CONSTANT   0.10016330E-03
END PERIOD

BEGIN PERIOD 274
  RECHARGE
    CONSTANT   0.10006130E-03
END PERIOD

BEGIN PERIOD 275
  RECHARGE
    CONSTANT   0.10003890E-03
END PERIOD

BEGIN PERIOD 276
  RECHARGE
    CONSTANT   0.10012900E-03
END PERIOD

BEGIN PERIOD 277
  RECHARGE
    CONSTANT   0.10009380E-03
END PERIOD

BEGIN PERIOD 278
  RECHARGE
    CONSTANT   0.10010190E-03
END PERIOD

BEGIN PERIOD 279
  RECHARGE
    CONSTANT   0.10009240E-03
END PERIOD

BEGIN PERIOD 280
  RECHARGE
    CONSTANT   0.10010040E-03
END PERIOD

BEGIN PERIOD 281
  RECHARGE
    CONSTANT   0.10008590E-03
END PERIOD

BEGIN PERIOD 282
  RECHARGE
    CONSTANT   0.10003910E-03
END PERIOD

BEGIN PERIOD 283
  RECHARGE
    CONSTANT   0.10015810E-03
END PERIOD

BEGIN PERIOD 284
  RECHARGE
    CONSTANT   0.10007210E-03
END PERIOD

BEGIN PERIOD 285
  RECHARGE
    CONSTANT   0.10009370E-03
END PERIOD

BEGIN PERIOD 286
  RECHARGE
    CONSTANT   0.10010690E-03
END PERIOD

BEGIN PERIOD 287
  RECHARGE
    CONSTANT   0.10012690E-03
END PERIOD

BEGIN PERIOD 288
  RECHARGE
    CONSTANT   0.10013960E-03
END PERIOD

BEGIN PERIOD 289
  RECHARGE
    CONSTANT   0.10009070E-03
END PERIOD

BEGIN PERIOD 290
  RECHARGE
    CONSTANT   0.10004170E-03
END PERIOD

BEGIN PERIOD 291
  RECHARGE
    CONSTANT   0.10017860E-03
END PERIOD

BEGIN PERIOD 292
  RECHARGE
    CONSTANT   0.10009750E-03
END PERIOD

BEGIN PERIOD 293
  RECHARGE
    CONSTANT   0.10009680E-03
END PERIOD

BEGIN PERIOD 294
  RECHARGE
    CONSTANT   0.10006300E-03
END PERIOD

BEGIN PERIOD 295
  RECHARGE
    CONSTANT   0.10005010E-03
END PERIOD

BEGIN PERIOD 296
  RECHARGE
    CONSTANT   0.10013230E-03
END PERIOD

BEGIN PERIOD 297
  RECHARGE
    CONSTANT   0.10006580E-03
END PERIOD

BEGIN PERIOD 298
  RECHARGE
    CONSTANT   0.10010400E-03
END PERIOD

BEGIN PERIOD 299
  RECHARGE
    CONSTANT   0.10000480E-03
END PERIOD

BEGIN PERIOD 300
  RECHARGE
    CONSTANT   0.10006580E-03
END PERIOD

BEGIN PERIOD 301
  RECHARGE
    CONSTANT   0.10003600E-03
END PERIOD

BEGIN PERIOD 302
  RECHARGE
    CONSTANT   0.10010230E-03
END PERIOD

BEGIN PERIOD 303
  RECHARGE
    CONSTANT   0.10009570E-03
END PERIOD

BEGIN PERIOD 304
  RECHARGE
    CONSTANT   0.10010320E-03
END PERIOD

BEGIN PERIOD 305
  RECHARGE
    CONSTANT   0.10012900E-03
END PERIOD

BEGIN PERIOD 306
  RECHARGE
    CONSTANT   0.10011440E-03
END PERIOD

BEGIN PERIOD 307
  RECHARGE
    CONSTANT   0.10014620E-03
END PERIOD

BEGIN PERIOD 308
  RECHARGE
    CONSTANT   0.10011270E-03
END PERIOD

BEGIN PERIOD 309
  RECHARGE
    CONSTANT   0.10005530E-03
END PERIOD

BEGIN PERIOD 310
  RECHARGE
    CONSTANT   0.10010540E-03
END PERIOD

BEGIN PERIOD 311
  RECHARGE
    CONSTANT   0.10007850E-03
END PERIOD

BEGIN PERIOD 312
  RECHARGE
    CONSTANT   0.10006300E-03
END PERIOD

BEGIN PERIOD 313
  RECHARGE
    CONSTANT   0.10007100E-03
END PERIOD

BEGIN PERIOD 314
  RECHARGE
    CONSTANT   0.10003020E-03
END PERIOD

BEGIN PERIOD 315
  RECHARGE
    CONSTANT   0.10015930E-03
END PERIOD

BEGIN PERIOD 316
  RECHARGE
    CONSTANT   0.10007750E-03
END PERIOD

BEGIN PERIOD 317
  RECHARGE
    CONSTANT   0.10011220E-03
END PERIOD

BEGIN PERIOD 318
  RECHARGE
    CONSTANT   0.10001900E-03
END PERIOD

BEGIN PERIOD 319
  RECHARGE
    CONSTANT   0.10012980E-03
END PERIOD

BEGIN PERIOD 320
  RECHARGE
    CONSTANT   0.10006170E-03
END PERIOD

BEGIN PERIOD 321
  RECHARGE
    CONSTANT   0.10011810E-03
END PERIOD

BEGIN PERIOD 322
  RECHARGE
    CONSTANT   0.10007540E-03
END PERIOD

BEGIN PERIOD 323
  RECHARGE
    CONSTANT   0.10017470E-03
END PERIOD

BEGIN PERIOD 324
  RECHARGE
    CONSTANT   0.10008070E-03
END PERIOD

BEGIN PERIOD 325
  RECHARGE
    CONSTANT   0.10017670E-03
END PERIOD

BEGIN PERIOD 326
  RECHARGE
    CONSTANT   0.10006440E-03
END PERIOD

BEGIN PERIOD 327
  RECHARGE
    CONSTANT   0.10010570E-03
END PERIOD

BEGIN PERIOD 328
  RECHARGE
    CONSTANT   0.10010380E-03
END PERIOD

BEGIN PERIOD 329
  RECHARGE
    CONSTANT   0.10013030E-03
END PERIOD

BEGIN PERIOD 330
  RECHARGE
    CONSTANT   0.10004730E-03
END PERIOD

BEGIN PERIOD 331
  RECHARGE
    CONSTANT   0.10012230E-03
END PERIOD

BEGIN PERIOD 332
  RECHARGE
    CONSTANT   0.10010520E-03
END PERIOD

BEGIN PERIOD 333
  RECHARGE
    CONSTANT   0.10005880E-03
END PERIOD

BEGIN PERIOD 334
  RECHARGE
    CONSTANT   0.10010380E-03
END PERIOD

BEGIN PERIOD 335
  RECHARGE
    CONSTANT   0.10011680E-03
END PERIOD

BEGIN PERIOD 336
  RECHARGE
    CONSTANT   0.10010380E-03
END PERIOD

BEGIN PERIOD 337
  RECHARGE
    CONSTANT   0.10006680E-03
END PERIOD

BEGIN PERIOD 338
  RECHARGE
    CONSTANT   0.10008140E-03
END PERIOD

BEGIN PERIOD 339
  RECHARGE
    CONSTANT   0.10002680E-03
END PERIOD

BEGIN PERIOD 340
  RECHARGE
    CONSTANT   0.10012820E-03
END PERIOD

BEGIN PERIOD 341
  RECHARGE
    CONSTANT   0.10004240E-03
END PERIOD

BEGIN PERIOD 342
  RECHARGE
    CONSTANT   0.10005970E-03
END PERIOD

BEGIN PERIOD 343
  RECHARGE
    CONSTANT   0.10006510E-03
END PERIOD

BEGIN PERIOD 344
  RECHARGE
    CONSTANT   0.10010660E-03
END PERIOD

BEGIN PERIOD 345
  RECHARGE
    CONSTANT   0.10006810E-03
END PERIOD

BEGIN PERIOD 346
  RECHARGE
    CONSTANT   0.10002160E-03
END PERIOD

BEGIN PERIOD 347
  RECHARGE
    CONSTANT   0.10009290E-03
END PERIOD

BEGIN PERIOD 348
  RECHARGE
    CONSTANT   0.10009170E-03
END PERIOD

BEGIN PERIOD 349
  RECHARGE
    CONSTANT   0.10014830E-03
END PERIOD

BEGIN PERIOD 350
  RECHARGE
    CONSTANT   0.10000530E-03
END PERIOD

BEGIN PERIOD 351
  RECHARGE
    CONSTANT   0.10009430E-03
END PERIOD

BEGIN PERIOD 352
  RECHARGE
    CONSTANT   0.10012280E-03
END PERIOD

BEGIN PERIOD 353
  RECHARGE
    CONSTANT   0.10002960E-03
END PERIOD

BEGIN PERIOD 354
  RECHARGE
    CONSTANT   0.10005780E-03
END PERIOD

BEGIN PERIOD 355
  RECHARGE
    CONSTANT   0.10004250E-03
END PERIOD

BEGIN PERIOD 356
  RECHARGE
    CONSTANT   0.10014640E-03
END PERIOD

BEGIN PERIOD 357
  RECHARGE
    CONSTANT   0.10009620E-03
END PERIOD

BEGIN PERIOD 358
  RECHARGE
    CONSTANT   0.10002960E-03
END PERIOD

BEGIN PERIOD 359
  RECHARGE
    CONSTANT   0.10001670E-03
END PERIOD

BEGIN PERIOD 360
  RECHARGE
    CONSTANT   0.10008160E-03
END PERIOD

BEGIN PERIOD 361
  RECHARGE
    CONSTANT   0.10000380E-03
END PERIOD

BEGIN PERIOD 362
  RECHARGE
    CONSTANT   0.10010560E-03
END PERIOD

BEGIN PERIOD 363
  RECHARGE
    CONSTANT   0.10013490E-03
END PERIOD

BEGIN PERIOD 364
  RECHARGE
    CONSTANT   0.10008470E-03
END PERIOD

BEGIN PERIOD 365
  RECHARGE
    CONSTANT   0.10014250E-03
END PERIOD

BEGIN PERIOD 366
  RECHARGE
    CONSTANT   0.10011300E-03
END PERIOD

BEGIN PERIOD 367
  RECHARGE
    CONSTANT   0.10009720E-03
END PERIOD

BEGIN PERIOD 368
  RECHARGE
    CONSTANT   0.10011680E-03
END PERIOD

BEGIN PERIOD 369
  RECHARGE
    CONSTANT   0.10012530E-03
END PERIOD

BEGIN PERIOD 370
  RECHARGE
    CONSTANT   0.10007040E-03
END PERIOD

BEGIN PERIOD 371
  RECHARGE
    CONSTANT   0.10005900E-03
END PERIOD

BEGIN PERIOD 372
  RECHARGE
    CONSTANT   0.10002210E-03
END PERIOD

BEGIN PERIOD 373
  RECHARGE
    CONSTANT   0.10004690E-03
END PERIOD

BEGIN PERIOD 374
  RECHARGE
    CONSTANT   0.10005430E-03
END PERIOD

BEGIN PERIOD 375
  RECHARGE
    CONSTANT   0.10008090E-03
END PERIOD

BEGIN PERIOD 376
  RECHARGE
    CONSTANT   0.10001670E-03
END PERIOD

BEGIN PERIOD 377
  RECHARGE
    CONSTANT   0.10015810E-03
END PERIOD

BEGIN PERIOD 378
  RECHARGE
    CONSTANT   0.10011490E-03
END PERIOD

BEGIN PERIOD 379
  RECHARGE
    CONSTANT   0.10002230E-03
END PERIOD

BEGIN PERIOD 380
  RECHARGE
    CONSTANT   0.10018930E-03
END PERIOD

BEGIN PERIOD 381
  RECHARGE
    CONSTANT   0.10014820E-03
END PERIOD

BEGIN PERIOD 382
  RECHARGE
    CONSTANT   0.10010530E-03
END PERIOD

BEGIN PERIOD 383
  RECHARGE
    CONSTANT   0.10008630E-03
END PERIOD

BEGIN PERIOD 384
  RECHARGE
    CONSTANT   0.10014710E-03
END PERIOD

BEGIN PERIOD 385
  RECHARGE
    CONSTANT   0.10010750E-03
END PERIOD

BEGIN PERIOD 386
  RECHARGE
    CONSTANT   0.10010240E-03
END PERIOD

BEGIN PERIOD 387
  RECHARGE
    CONSTANT   0.10013630E-03
END PERIOD

BEGIN PERIOD 388
  RECHARGE
    CONSTANT   0.10007480E-03
END PERIOD

BEGIN PERIOD 389
  RECHARGE
    CONSTANT   0.10009040E-03
END PERIOD

BEGIN PERIOD 390
  RECHARGE
    CONSTANT   0.10004950E-03
END PERIOD

BEGIN PERIOD 391
  RECHARGE
    CONSTANT   0.10008650E-03
END PERIOD

BEGIN PERIOD 392
  RECHARGE
    CONSTANT   0.10010480E-03
END PERIOD

BEGIN PERIOD 393
  RECHARGE
    CONSTANT   0.10015720E-03
END PERIOD

BEGIN PERIOD 394
  RECHARGE
    CONSTANT   0.10012480E-03
END PERIOD

BEGIN PERIOD 395
  RECHARGE
    CONSTANT   0.10011650E-03
END PERIOD

BEGIN PERIOD 396
  RECHARGE
    CONSTANT   0.10011610E-03
END PERIOD

BEGIN PERIOD 397
  RECHARGE
    CONSTANT   0.10015310E-03
END PERIOD

BEGIN PERIOD 398
  RECHARGE
    CONSTANT   0.10006190E-03
END PERIOD

BEGIN PERIOD 399
  RECHARGE
    CONSTANT   0.10012990E-03
END PERIOD

BEGIN PERIOD 400
  RECHARGE
    CONSTANT   0.10009180E-03
END PERIOD

BEGIN PERIOD 401
  RECHARGE
    CONSTANT   0.10011490E-03
END PERIOD

BEGIN PERIOD 402
  RECHARGE
    CONSTANT   0.10011180E-03
END PERIOD

BEGIN PERIOD 403
  RECHARGE
    CONSTANT   0.10013640E-03
END PERIOD

BEGIN PERIOD 404
  RECHARGE
    CONSTANT   0.10005220E-03
END PERIOD

BEGIN PERIOD 405
  RECHARGE
    CONSTANT   0.10008430E-03
END PERIOD

BEGIN PERIOD 406
  RECHARGE
    CONSTANT   0.10008460E-03
END PERIOD

BEGIN PERIOD 407
  RECHARGE
    CONSTANT   0.10010720E-03
END PERIOD

BEGIN PERIOD 408
  RECHARGE
    CONSTANT   0.10007970E-03
END PERIOD

BEGIN PERIOD 409
  RECHARGE
    CONSTANT   0.10013150E-03
END PERIOD

BEGIN PERIOD 410
  RECHARGE
    CONSTANT   0.10017600E-03
END PERIOD

BEGIN PERIOD 411
  RECHARGE
    CONSTANT   0.10007660E-03
END PERIOD

BEGIN PERIOD 412
  RECHARGE
    CONSTANT   0.10015110E-03
END PERIOD

BEGIN PERIOD 413
  RECHARGE
    CONSTANT   0.10006440E-03
END PERIOD

BEGIN PERIOD 414
  RECHARGE
    CONSTANT   0.10014080E-03
END PERIOD

BEGIN PERIOD 415
  RECHARGE
    CONSTANT   0.10008130E-03
END PERIOD

BEGIN PERIOD 416
  RECHARGE
    CONSTANT   0.10009990E-03
END PERIOD

BEGIN PERIOD 417
  RECHARGE
    CONSTANT   0.10014560E-03
END PERIOD

BEGIN PERIOD 418
  RECHARGE
    CONSTANT   0.10002300E-03
END PERIOD

BEGIN PERIOD 419
  RECHARGE
    CONSTANT   0.10009850E-03
END PERIOD

BEGIN PERIOD 420
  RECHARGE
    CONSTANT   0.10005840E-03
END PERIOD

BEGIN PERIOD 421
  RECHARGE
    CONSTANT   0.10008940E-03
END PERIOD

BEGIN PERIOD 422
  RECHARGE
    CONSTANT   0.10013350E-03
END PERIOD

BEGIN PERIOD 423
  RECHARGE
    CONSTANT   0.10009260E-03
END PERIOD

BEGIN PERIOD 424
  RECHARGE
    CONSTANT   0.10002450E-03
END PERIOD

BEGIN PERIOD 425
  RECHARGE
    CONSTANT   0.10005570E-03
END PERIOD

BEGIN PERIOD 426
  RECHARGE
    CONSTANT   0.10008070E-03
END PERIOD

BEGIN PERIOD 427
  RECHARGE
    CONSTANT   0.10015510E-03
END PERIOD

BEGIN PERIOD 428
  RECHARGE
    CONSTANT   0.10014540E-03
END PERIOD

BEGIN PERIOD 429
  RECHARGE