# WEL6 input file, prepared by MF5to6 on 4/24/2020 at 15:11:20.

BEGIN Options
  PRINT_INPUT
  PRINT_FLOWS
  SAVE_FLOWS
END Options

BEGIN Dimensions
  MAXBOUND  6
END Dimensions

BEGIN PERIOD 1
  3  10  17   -175.00000
  3  12  14   -175.00000
  3  21  15   -175.00000
  3  27  11   -175.00000
  3  30  7   -175.00000
  3  35  13   -175.00000
END PERIOD

BEGIN PERIOD 2
  3  10  17   -62.721500
  3  12  14   -62.721500
  3  21  15   -62.721500
  3  27  11   -62.721500
  3  30  7   -62.721500
  3  35  13   -62.721500
END PERIOD

BEGIN PERIOD 3
  3  10  17   -69.591230
  3  12  14   -69.591230
  3  21  15   -69.591230
  3  27  11   -69.591230
  3  30  7   -69.591230
  3  35  13   -69.591230
END PERIOD

BEGIN PERIOD 4
  3  10  17   -107.15191
  3  12  14   -107.15191
  3  21  15   -107.15191
  3  27  11   -107.15191
  3  30  7   -107.15191
  3  35  13   -107.15191
END PERIOD

BEGIN PERIOD 5
  3  10  17   -164.46732
  3  12  14   -164.46732
  3  21  15   -164.46732
  3  27  11   -164.46732
  3  30  7   -164.46732
  3  35  13   -164.46732
END PERIOD

BEGIN PERIOD 6
  3  10  17   -224.84941
  3  12  14   -224.84941
  3  21  15   -224.84941
  3  27  11   -224.84941
  3  30  7   -224.84941
  3  35  13   -224.84941
END PERIOD

BEGIN PERIOD 7
  3  10  17   -270.71735
  3  12  14   -270.71735
  3  21  15   -270.71735
  3  27  11   -270.71735
  3  30  7   -270.71735
  3  35  13   -270.71735
END PERIOD

BEGIN PERIOD 8
  3  10  17   -291.60320
  3  12  14   -291.60320
  3  21  15   -291.60320
  3  27  11   -291.60320
  3  30  7   -291.60320
  3  35  13   -291.60320
END PERIOD

BEGIN PERIOD 9
  3  10  17   -288.71606
  3  12  14   -288.71606
  3  21  15   -288.71606
  3  27  11   -288.71606
  3  30  7   -288.71606
  3  35  13   -288.71606
END PERIOD

BEGIN PERIOD 10
  3  10  17   -273.60507
  3  12  14   -273.60507
  3  21  15   -273.60507
  3  27  11   -273.60507
  3  30  7   -273.60507
  3  35  13   -273.60507
END PERIOD

BEGIN PERIOD 11
  3  10  17   -229.78413
  3  12  14   -229.78413
  3  21  15   -229.78413
  3  27  11   -229.78413
  3  30  7   -229.78413
  3  35  13   -229.78413
END PERIOD

BEGIN PERIOD 12
  3  10  17   -170.01218
  3  12  14   -170.01218
  3  21  15   -170.01218
  3  27  11   -170.01218
  3  30  7   -170.01218
  3  35  13   -170.01218
END PERIOD

BEGIN PERIOD 13
  3  10  17   -111.69247
  3  12  14   -111.69247
  3  21  15   -111.69247
  3  27  11   -111.69247
  3  30  7   -111.69247
  3  35  13   -111.69247
END PERIOD

BEGIN PERIOD 14
  3  10  17   -71.805470
  3  12  14   -71.805470
  3  21  15   -71.805470
  3  27  11   -71.805470
  3  30  7   -71.805470
  3  35  13   -71.805470
END PERIOD

BEGIN PERIOD 15
  3  10  17   -61.964714
  3  12  14   -61.964714
  3  21  15   -61.964714
  3  27  11   -61.964714
  3  30  7   -61.964714
  3  35  13   -61.964714
END PERIOD

BEGIN PERIOD 16
  3  10  17   -85.035440
  3  12  14   -85.035440
  3  21  15   -85.035440
  3  27  11   -85.035440
  3  30  7   -85.035440
  3  35  13   -85.035440
END PERIOD

BEGIN PERIOD 17
  3  10  17   -134.30035
  3  12  14   -134.30035
  3  21  15   -134.30035
  3  27  11   -134.30035
  3  30  7   -134.30035
  3  35  13   -134.30035
END PERIOD

BEGIN PERIOD 18
  3  10  17   -195.41544
  3  12  14   -195.41544
  3  21  15   -195.41544
  3  27  11   -195.41544
  3  30  7   -195.41544
  3  35  13   -195.41544
END PERIOD

BEGIN PERIOD 19
  3  10  17   -250.58632
  3  12  14   -250.58632
  3  21  15   -250.58632
  3  27  11   -250.58632
  3  30  7   -250.58632
  3  35  13   -250.58632
END PERIOD

BEGIN PERIOD 20
  3  10  17   -283.74940
  3  12  14   -283.74940
  3  21  15   -283.74940
  3  27  11   -283.74940
  3  30  7   -283.74940
  3  35  13   -283.74940
END PERIOD

BEGIN PERIOD 21
  3  10  17   -285.24890
  3  12  14   -285.24890
  3  21  15   -285.24890
  3  27  11   -285.24890
  3  30  7   -285.24890
  3  35  13   -285.24890
END PERIOD

BEGIN PERIOD 22
  3  10  17   -254.64816
  3  12  14   -254.64816
  3  21  15   -254.64816
  3  27  11   -254.64816
  3  30  7   -254.64816
  3  35  13   -254.64816
END PERIOD

BEGIN PERIOD 23
  3  10  17   -200.85701
  3  12  14   -200.85701
  3  21  15   -200.85701
  3  27  11   -200.85701
  3  30  7   -200.85701
  3  35  13   -200.85701
END PERIOD

BEGIN PERIOD 24
  3  10  17   -139.53728
  3  12  14   -139.53728
  3  21  15   -139.53728
  3  27  11   -139.53728
  3  30  7   -139.53728
  3  35  13   -139.53728
END PERIOD

BEGIN PERIOD 25
  3  10  17   -88.542915
  3  12  14   -88.542915
  3  21  15   -88.542915
  3  27  11   -88.542915
  3  30  7   -88.542915
  3  35  13   -88.542915
END PERIOD
