# WEL6 input file, prepared by MF5to6 on 6/22/2020 at 9:51:18.

BEGIN Options
  PRINT_INPUT
  PRINT_FLOWS
  SAVE_FLOWS
END Options

BEGIN Dimensions
  MAXBOUND  6
END Dimensions

BEGIN PERIOD 1
  3  10  17   -150.00000
  3  12  14   -150.00000
  3  21  15   -150.00000
  3  27  11   -150.00000
  3  30  7   -150.00000
  3  35  13   -150.00000
END PERIOD

BEGIN PERIOD 2
  3  10  17   -150.04948
  3  12  14   -150.04948
  3  21  15   -150.04948
  3  27  11   -150.04948
  3  30  7   -150.04948
  3  35  13   -150.04948
END PERIOD

BEGIN PERIOD 3
  3  10  17   -150.05121
  3  12  14   -150.05121
  3  21  15   -150.05121
  3  27  11   -150.05121
  3  30  7   -150.05121
  3  35  13   -150.05121
END PERIOD

BEGIN PERIOD 4
  3  10  17   -150.10072
  3  12  14   -150.10072
  3  21  15   -150.10072
  3  27  11   -150.10072
  3  30  7   -150.10072
  3  35  13   -150.10072
END PERIOD

BEGIN PERIOD 5
  3  10  17   -150.07437
  3  12  14   -150.07437
  3  21  15   -150.07437
  3  27  11   -150.07437
  3  30  7   -150.07437
  3  35  13   -150.07437
END PERIOD

BEGIN PERIOD 6
  3  10  17   -150.08728
  3  12  14   -150.08728
  3  21  15   -150.08728
  3  27  11   -150.08728
  3  30  7   -150.08728
  3  35  13   -150.08728
END PERIOD

BEGIN PERIOD 7
  3  10  17   -150.03442
  3  12  14   -150.03442
  3  21  15   -150.03442
  3  27  11   -150.03442
  3  30  7   -150.03442
  3  35  13   -150.03442
END PERIOD

BEGIN PERIOD 8
  3  10  17   -150.08438
  3  12  14   -150.08438
  3  21  15   -150.08438
  3  27  11   -150.08438
  3  30  7   -150.08438
  3  35  13   -150.08438
END PERIOD

BEGIN PERIOD 9
  3  10  17   -150.01009
  3  12  14   -150.01009
  3  21  15   -150.01009
  3  27  11   -150.01009
  3  30  7   -150.01009
  3  35  13   -150.01009
END PERIOD

BEGIN PERIOD 10
  3  10  17   -150.00711
  3  12  14   -150.00711
  3  21  15   -150.00711
  3  27  11   -150.00711
  3  30  7   -150.00711
  3  35  13   -150.00711
END PERIOD

BEGIN PERIOD 11
  3  10  17   -150.11035
  3  12  14   -150.11035
  3  21  15   -150.11035
  3  27  11   -150.11035
  3  30  7   -150.11035
  3  35  13   -150.11035
END PERIOD

BEGIN PERIOD 12
  3  10  17   -150.09549
  3  12  14   -150.09549
  3  21  15   -150.09549
  3  27  11   -150.09549
  3  30  7   -150.09549
  3  35  13   -150.09549
END PERIOD

BEGIN PERIOD 13
  3  10  17   -150.05319
  3  12  14   -150.05319
  3  21  15   -150.05319
  3  27  11   -150.05319
  3  30  7   -150.05319
  3  35  13   -150.05319
END PERIOD

BEGIN PERIOD 14
  3  10  17   -150.09949
  3  12  14   -150.09949
  3  21  15   -150.09949
  3  27  11   -150.09949
  3  30  7   -150.09949
  3  35  13   -150.09949
END PERIOD

BEGIN PERIOD 15
  3  10  17   -150.01581
  3  12  14   -150.01581
  3  21  15   -150.01581
  3  27  11   -150.01581
  3  30  7   -150.01581
  3  35  13   -150.01581
END PERIOD

BEGIN PERIOD 16
  3  10  17   -150.14326
  3  12  14   -150.14326
  3  21  15   -150.14326
  3  27  11   -150.14326
  3  30  7   -150.14326
  3  35  13   -150.14326
END PERIOD

BEGIN PERIOD 17
  3  10  17   -150.11694
  3  12  14   -150.11694
  3  21  15   -150.11694
  3  27  11   -150.11694
  3  30  7   -150.11694
  3  35  13   -150.11694
END PERIOD

BEGIN PERIOD 18
  3  10  17   -150.02151
  3  12  14   -150.02151
  3  21  15   -150.02151
  3  27  11   -150.02151
  3  30  7   -150.02151
  3  35  13   -150.02151
END PERIOD

BEGIN PERIOD 19
  3  10  17   -150.10599
  3  12  14   -150.10599
  3  21  15   -150.10599
  3  27  11   -150.10599
  3  30  7   -150.10599
  3  35  13   -150.10599
END PERIOD

BEGIN PERIOD 20
  3  10  17   -150.03848
  3  12  14   -150.03848
  3  21  15   -150.03848
  3  27  11   -150.03848
  3  30  7   -150.03848
  3  35  13   -150.03848
END PERIOD

BEGIN PERIOD 21
  3  10  17   -150.04315
  3  12  14   -150.04315
  3  21  15   -150.04315
  3  27  11   -150.04315
  3  30  7   -150.04315
  3  35  13   -150.04315
END PERIOD

BEGIN PERIOD 22
  3  10  17   -150.14168
  3  12  14   -150.14168
  3  21  15   -150.14168
  3  27  11   -150.14168
  3  30  7   -150.14168
  3  35  13   -150.14168
END PERIOD

BEGIN PERIOD 23
  3  10  17   -150.01862
  3  12  14   -150.01862
  3  21  15   -150.01862
  3  27  11   -150.01862
  3  30  7   -150.01862
  3  35  13   -150.01862
END PERIOD

BEGIN PERIOD 24
  3  10  17   -150.08948
  3  12  14   -150.08948
  3  21  15   -150.08948
  3  27  11   -150.08948
  3  30  7   -150.08948
  3  35  13   -150.08948
END PERIOD

BEGIN PERIOD 25
  3  10  17   -150.12671
  3  12  14   -150.12671
  3  21  15   -150.12671
  3  27  11   -150.12671
  3  30  7   -150.12671
  3  35  13   -150.12671
END PERIOD
