# RCH6 input file, prepared by MF5to6 on 6/17/2020 at 19:22:11.

BEGIN Options
  READASARRAYS
  SAVE_FLOWS
END Options

BEGIN PERIOD 1
  RECHARGE
    CONSTANT   0.10000000E-03
END PERIOD
