# WEL6 input file, prepared by MF5to6 on 6/17/2020 at 19:22:11.

BEGIN Options
  PRINT_INPUT
  PRINT_FLOWS
  SAVE_FLOWS
END Options

BEGIN Dimensions
  MAXBOUND  6
END Dimensions

BEGIN PERIOD 1
  3  10  17   -150.00000
  3  12  14   -150.00000
  3  21  15   -150.00000
  3  27  11   -150.00000
  3  30  7   -150.00000
  3  35  13   -150.00000
END PERIOD
