# WEL6 input file, prepared by MF5to6 on 6/18/2020 at 8:46:14.

BEGIN Options
  PRINT_INPUT
  PRINT_FLOWS
  SAVE_FLOWS
END Options

BEGIN Dimensions
  MAXBOUND  6
END Dimensions

BEGIN PERIOD 1
  3  10  17   -150.00000
  3  12  14   -150.00000
  3  21  15   -150.00000
  3  27  11   -150.00000
  3  30  7   -150.00000
  3  35  13   -150.00000
END PERIOD

BEGIN PERIOD 2
  3  10  17   -150.09154
  3  12  14   -150.09154
  3  21  15   -150.09154
  3  27  11   -150.09154
  3  30  7   -150.09154
  3  35  13   -150.09154
END PERIOD

BEGIN PERIOD 3
  3  10  17   -150.12020
  3  12  14   -150.12020
  3  21  15   -150.12020
  3  27  11   -150.12020
  3  30  7   -150.12020
  3  35  13   -150.12020
END PERIOD

BEGIN PERIOD 4
  3  10  17   -150.10641
  3  12  14   -150.10641
  3  21  15   -150.10641
  3  27  11   -150.10641
  3  30  7   -150.10641
  3  35  13   -150.10641
END PERIOD

BEGIN PERIOD 5
  3  10  17   -150.05908
  3  12  14   -150.05908
  3  21  15   -150.05908
  3  27  11   -150.05908
  3  30  7   -150.05908
  3  35  13   -150.05908
END PERIOD

BEGIN PERIOD 6
  3  10  17   -150.03687
  3  12  14   -150.03687
  3  21  15   -150.03687
  3  27  11   -150.03687
  3  30  7   -150.03687
  3  35  13   -150.03687
END PERIOD

BEGIN PERIOD 7
  3  10  17   -150.06363
  3  12  14   -150.06363
  3  21  15   -150.06363
  3  27  11   -150.06363
  3  30  7   -150.06363
  3  35  13   -150.06363
END PERIOD

BEGIN PERIOD 8
  3  10  17   -150.08092
  3  12  14   -150.08092
  3  21  15   -150.08092
  3  27  11   -150.08092
  3  30  7   -150.08092
  3  35  13   -150.08092
END PERIOD

BEGIN PERIOD 9
  3  10  17   -150.04991
  3  12  14   -150.04991
  3  21  15   -150.04991
  3  27  11   -150.04991
  3  30  7   -150.04991
  3  35  13   -150.04991
END PERIOD

BEGIN PERIOD 10
  3  10  17   -150.10289
  3  12  14   -150.10289
  3  21  15   -150.10289
  3  27  11   -150.10289
  3  30  7   -150.10289
  3  35  13   -150.10289
END PERIOD

BEGIN PERIOD 11
  3  10  17   -150.04254
  3  12  14   -150.04254
  3  21  15   -150.04254
  3  27  11   -150.04254
  3  30  7   -150.04254
  3  35  13   -150.04254
END PERIOD

BEGIN PERIOD 12
  3  10  17   -150.02580
  3  12  14   -150.02580
  3  21  15   -150.02580
  3  27  11   -150.02580
  3  30  7   -150.02580
  3  35  13   -150.02580
END PERIOD

BEGIN PERIOD 13
  3  10  17   -150.01915
  3  12  14   -150.01915
  3  21  15   -150.01915
  3  27  11   -150.01915
  3  30  7   -150.01915
  3  35  13   -150.01915
END PERIOD

BEGIN PERIOD 14
  3  10  17   -150.09052
  3  12  14   -150.09052
  3  21  15   -150.09052
  3  27  11   -150.09052
  3  30  7   -150.09052
  3  35  13   -150.09052
END PERIOD

BEGIN PERIOD 15
  3  10  17   -150.08830
  3  12  14   -150.08830
  3  21  15   -150.08830
  3  27  11   -150.08830
  3  30  7   -150.08830
  3  35  13   -150.08830
END PERIOD

BEGIN PERIOD 16
  3  10  17   -150.10542
  3  12  14   -150.10542
  3  21  15   -150.10542
  3  27  11   -150.10542
  3  30  7   -150.10542
  3  35  13   -150.10542
END PERIOD

BEGIN PERIOD 17
  3  10  17   -150.10477
  3  12  14   -150.10477
  3  21  15   -150.10477
  3  27  11   -150.10477
  3  30  7   -150.10477
  3  35  13   -150.10477
END PERIOD

BEGIN PERIOD 18
  3  10  17   -150.03754
  3  12  14   -150.03754
  3  21  15   -150.03754
  3  27  11   -150.03754
  3  30  7   -150.03754
  3  35  13   -150.03754
END PERIOD

BEGIN PERIOD 19
  3  10  17   -150.03387
  3  12  14   -150.03387
  3  21  15   -150.03387
  3  27  11   -150.03387
  3  30  7   -150.03387
  3  35  13   -150.03387
END PERIOD

BEGIN PERIOD 20
  3  10  17   -150.02400
  3  12  14   -150.02400
  3  21  15   -150.02400
  3  27  11   -150.02400
  3  30  7   -150.02400
  3  35  13   -150.02400
END PERIOD

BEGIN PERIOD 21
  3  10  17   -150.08138
  3  12  14   -150.08138
  3  21  15   -150.08138
  3  27  11   -150.08138
  3  30  7   -150.08138
  3  35  13   -150.08138
END PERIOD

BEGIN PERIOD 22
  3  10  17   -150.14992
  3  12  14   -150.14992
  3  21  15   -150.14992
  3  27  11   -150.14992
  3  30  7   -150.14992
  3  35  13   -150.14992
END PERIOD

BEGIN PERIOD 23
  3  10  17   -150.07872
  3  12  14   -150.07872
  3  21  15   -150.07872
  3  27  11   -150.07872
  3  30  7   -150.07872
  3  35  13   -150.07872
END PERIOD

BEGIN PERIOD 24
  3  10  17   -150.08145
  3  12  14   -150.08145
  3  21  15   -150.08145
  3  27  11   -150.08145
  3  30  7   -150.08145
  3  35  13   -150.08145
END PERIOD

BEGIN PERIOD 25
  3  10  17   -150.06493
  3  12  14   -150.06493
  3  21  15   -150.06493
  3  27  11   -150.06493
  3  30  7   -150.06493
  3  35  13   -150.06493
END PERIOD
