# WEL6 input file, prepared by MF5to6 on 6/30/2020 at 10:15:31.

BEGIN Options
  PRINT_INPUT
  PRINT_FLOWS
  SAVE_FLOWS
END Options

BEGIN Dimensions
  MAXBOUND  6
END Dimensions

BEGIN PERIOD 1
  3  10  17   -150.00000
  3  12  14   -150.00000
  3  21  15   -150.00000
  3  27  11   -150.00000
  3  30  7   -150.00000
  3  35  13   -150.00000
END PERIOD

BEGIN PERIOD 2
  3  10  17   -150.10478
  3  12  14   -150.10478
  3  21  15   -150.10478
  3  27  11   -150.10478
  3  30  7   -150.10478
  3  35  13   -150.10478
END PERIOD

BEGIN PERIOD 3
  3  10  17   -150.00368
  3  12  14   -150.00368
  3  21  15   -150.00368
  3  27  11   -150.00368
  3  30  7   -150.00368
  3  35  13   -150.00368
END PERIOD

BEGIN PERIOD 4
  3  10  17   -150.11030
  3  12  14   -150.11030
  3  21  15   -150.11030
  3  27  11   -150.11030
  3  30  7   -150.11030
  3  35  13   -150.11030
END PERIOD

BEGIN PERIOD 5
  3  10  17   -150.11754
  3  12  14   -150.11754
  3  21  15   -150.11754
  3  27  11   -150.11754
  3  30  7   -150.11754
  3  35  13   -150.11754
END PERIOD

BEGIN PERIOD 6
  3  10  17   -150.01196
  3  12  14   -150.01196
  3  21  15   -150.01196
  3  27  11   -150.01196
  3  30  7   -150.01196
  3  35  13   -150.01196
END PERIOD

BEGIN PERIOD 7
  3  10  17   -150.13435
  3  12  14   -150.13435
  3  21  15   -150.13435
  3  27  11   -150.13435
  3  30  7   -150.13435
  3  35  13   -150.13435
END PERIOD

BEGIN PERIOD 8
  3  10  17   -150.14384
  3  12  14   -150.14384
  3  21  15   -150.14384
  3  27  11   -150.14384
  3  30  7   -150.14384
  3  35  13   -150.14384
END PERIOD

BEGIN PERIOD 9
  3  10  17   -150.08127
  3  12  14   -150.08127
  3  21  15   -150.08127
  3  27  11   -150.08127
  3  30  7   -150.08127
  3  35  13   -150.08127
END PERIOD

BEGIN PERIOD 10
  3  10  17   -150.11142
  3  12  14   -150.11142
  3  21  15   -150.11142
  3  27  11   -150.11142
  3  30  7   -150.11142
  3  35  13   -150.11142
END PERIOD

BEGIN PERIOD 11
  3  10  17   -150.12605
  3  12  14   -150.12605
  3  21  15   -150.12605
  3  27  11   -150.12605
  3  30  7   -150.12605
  3  35  13   -150.12605
END PERIOD

BEGIN PERIOD 12
  3  10  17   -150.00444
  3  12  14   -150.00444
  3  21  15   -150.00444
  3  27  11   -150.00444
  3  30  7   -150.00444
  3  35  13   -150.00444
END PERIOD

BEGIN PERIOD 13
  3  10  17   -150.12659
  3  12  14   -150.12659
  3  21  15   -150.12659
  3  27  11   -150.12659
  3  30  7   -150.12659
  3  35  13   -150.12659
END PERIOD

BEGIN PERIOD 14
  3  10  17   -150.04703
  3  12  14   -150.04703
  3  21  15   -150.04703
  3  27  11   -150.04703
  3  30  7   -150.04703
  3  35  13   -150.04703
END PERIOD

BEGIN PERIOD 15
  3  10  17   -150.01169
  3  12  14   -150.01169
  3  21  15   -150.01169
  3  27  11   -150.01169
  3  30  7   -150.01169
  3  35  13   -150.01169
END PERIOD

BEGIN PERIOD 16
  3  10  17   -150.01938
  3  12  14   -150.01938
  3  21  15   -150.01938
  3  27  11   -150.01938
  3  30  7   -150.01938
  3  35  13   -150.01938
END PERIOD

BEGIN PERIOD 17
  3  10  17   -150.01892
  3  12  14   -150.01892
  3  21  15   -150.01892
  3  27  11   -150.01892
  3  30  7   -150.01892
  3  35  13   -150.01892
END PERIOD

BEGIN PERIOD 18
  3  10  17   -150.09157
  3  12  14   -150.09157
  3  21  15   -150.09157
  3  27  11   -150.09157
  3  30  7   -150.09157
  3  35  13   -150.09157
END PERIOD

BEGIN PERIOD 19
  3  10  17   -150.00449
  3  12  14   -150.00449
  3  21  15   -150.00449
  3  27  11   -150.00449
  3  30  7   -150.00449
  3  35  13   -150.00449
END PERIOD

BEGIN PERIOD 20
  3  10  17   -150.09467
  3  12  14   -150.09467
  3  21  15   -150.09467
  3  27  11   -150.09467
  3  30  7   -150.09467
  3  35  13   -150.09467
END PERIOD

BEGIN PERIOD 21
  3  10  17   -150.06160
  3  12  14   -150.06160
  3  21  15   -150.06160
  3  27  11   -150.06160
  3  30  7   -150.06160
  3  35  13   -150.06160
END PERIOD

BEGIN PERIOD 22
  3  10  17   -150.02652
  3  12  14   -150.02652
  3  21  15   -150.02652
  3  27  11   -150.02652
  3  30  7   -150.02652
  3  35  13   -150.02652
END PERIOD

BEGIN PERIOD 23
  3  10  17   -150.09424
  3  12  14   -150.09424
  3  21  15   -150.09424
  3  27  11   -150.09424
  3  30  7   -150.09424
  3  35  13   -150.09424
END PERIOD

BEGIN PERIOD 24
  3  10  17   -150.11214
  3  12  14   -150.11214
  3  21  15   -150.11214
  3  27  11   -150.11214
  3  30  7   -150.11214
  3  35  13   -150.11214
END PERIOD

BEGIN PERIOD 25
  3  10  17   -150.09062
  3  12  14   -150.09062
  3  21  15   -150.09062
  3  27  11   -150.09062
  3  30  7   -150.09062
  3  35  13   -150.09062
END PERIOD
