# WEL6 input file, prepared by MF5to6 on 6/30/2020 at 16:32:59.

BEGIN Options
  PRINT_INPUT
  PRINT_FLOWS
  SAVE_FLOWS
END Options

BEGIN Dimensions
  MAXBOUND  6
END Dimensions

BEGIN PERIOD 1
  3  10  17   -150.00000
  3  12  14   -150.00000
  3  21  15   -150.00000
  3  27  11   -150.00000
  3  30  7   -150.00000
  3  35  13   -150.00000
END PERIOD

BEGIN PERIOD 2
  3  10  17   -150.04126
  3  12  14   -150.04126
  3  21  15   -150.04126
  3  27  11   -150.04126
  3  30  7   -150.04126
  3  35  13   -150.04126
END PERIOD

BEGIN PERIOD 3
  3  10  17   -150.03188
  3  12  14   -150.03188
  3  21  15   -150.03188
  3  27  11   -150.03188
  3  30  7   -150.03188
  3  35  13   -150.03188
END PERIOD

BEGIN PERIOD 4
  3  10  17   -150.05199
  3  12  14   -150.05199
  3  21  15   -150.05199
  3  27  11   -150.05199
  3  30  7   -150.05199
  3  35  13   -150.05199
END PERIOD

BEGIN PERIOD 5
  3  10  17   -150.13808
  3  12  14   -150.13808
  3  21  15   -150.13808
  3  27  11   -150.13808
  3  30  7   -150.13808
  3  35  13   -150.13808
END PERIOD

BEGIN PERIOD 6
  3  10  17   -150.06421
  3  12  14   -150.06421
  3  21  15   -150.06421
  3  27  11   -150.06421
  3  30  7   -150.06421
  3  35  13   -150.06421
END PERIOD

BEGIN PERIOD 7
  3  10  17   -150.02795
  3  12  14   -150.02795
  3  21  15   -150.02795
  3  27  11   -150.02795
  3  30  7   -150.02795
  3  35  13   -150.02795
END PERIOD

BEGIN PERIOD 8
  3  10  17   -150.01076
  3  12  14   -150.01076
  3  21  15   -150.01076
  3  27  11   -150.01076
  3  30  7   -150.01076
  3  35  13   -150.01076
END PERIOD

BEGIN PERIOD 9
  3  10  17   -150.03420
  3  12  14   -150.03420
  3  21  15   -150.03420
  3  27  11   -150.03420
  3  30  7   -150.03420
  3  35  13   -150.03420
END PERIOD

BEGIN PERIOD 10
  3  10  17   -150.00217
  3  12  14   -150.00217
  3  21  15   -150.00217
  3  27  11   -150.00217
  3  30  7   -150.00217
  3  35  13   -150.00217
END PERIOD

BEGIN PERIOD 11
  3  10  17   -150.13762
  3  12  14   -150.13762
  3  21  15   -150.13762
  3  27  11   -150.13762
  3  30  7   -150.13762
  3  35  13   -150.13762
END PERIOD

BEGIN PERIOD 12
  3  10  17   -150.05765
  3  12  14   -150.05765
  3  21  15   -150.05765
  3  27  11   -150.05765
  3  30  7   -150.05765
  3  35  13   -150.05765
END PERIOD

BEGIN PERIOD 13
  3  10  17   -150.03493
  3  12  14   -150.03493
  3  21  15   -150.03493
  3  27  11   -150.03493
  3  30  7   -150.03493
  3  35  13   -150.03493
END PERIOD

BEGIN PERIOD 14
  3  10  17   -150.14450
  3  12  14   -150.14450
  3  21  15   -150.14450
  3  27  11   -150.14450
  3  30  7   -150.14450
  3  35  13   -150.14450
END PERIOD

BEGIN PERIOD 15
  3  10  17   -150.12509
  3  12  14   -150.12509
  3  21  15   -150.12509
  3  27  11   -150.12509
  3  30  7   -150.12509
  3  35  13   -150.12509
END PERIOD

BEGIN PERIOD 16
  3  10  17   -150.12967
  3  12  14   -150.12967
  3  21  15   -150.12967
  3  27  11   -150.12967
  3  30  7   -150.12967
  3  35  13   -150.12967
END PERIOD

BEGIN PERIOD 17
  3  10  17   -150.02005
  3  12  14   -150.02005
  3  21  15   -150.02005
  3  27  11   -150.02005
  3  30  7   -150.02005
  3  35  13   -150.02005
END PERIOD

BEGIN PERIOD 18
  3  10  17   -150.13838
  3  12  14   -150.13838
  3  21  15   -150.13838
  3  27  11   -150.13838
  3  30  7   -150.13838
  3  35  13   -150.13838
END PERIOD

BEGIN PERIOD 19
  3  10  17   -150.14680
  3  12  14   -150.14680
  3  21  15   -150.14680
  3  27  11   -150.14680
  3  30  7   -150.14680
  3  35  13   -150.14680
END PERIOD

BEGIN PERIOD 20
  3  10  17   -150.13252
  3  12  14   -150.13252
  3  21  15   -150.13252
  3  27  11   -150.13252
  3  30  7   -150.13252
  3  35  13   -150.13252
END PERIOD

BEGIN PERIOD 21
  3  10  17   -150.11371
  3  12  14   -150.11371
  3  21  15   -150.11371
  3  27  11   -150.11371
  3  30  7   -150.11371
  3  35  13   -150.11371
END PERIOD

BEGIN PERIOD 22
  3  10  17   -150.14178
  3  12  14   -150.14178
  3  21  15   -150.14178
  3  27  11   -150.14178
  3  30  7   -150.14178
  3  35  13   -150.14178
END PERIOD

BEGIN PERIOD 23
  3  10  17   -150.09602
  3  12  14   -150.09602
  3  21  15   -150.09602
  3  27  11   -150.09602
  3  30  7   -150.09602
  3  35  13   -150.09602
END PERIOD

BEGIN PERIOD 24
  3  10  17   -150.01248
  3  12  14   -150.01248
  3  21  15   -150.01248
  3  27  11   -150.01248
  3  30  7   -150.01248
  3  35  13   -150.01248
END PERIOD

BEGIN PERIOD 25
  3  10  17   -150.05241
  3  12  14   -150.05241
  3  21  15   -150.05241
  3  27  11   -150.05241
  3  30  7   -150.05241
  3  35  13   -150.05241
END PERIOD
