# WEL6 input file, prepared by MF5to6 on 6/30/2020 at 18:59:40.

BEGIN Options
  PRINT_INPUT
  PRINT_FLOWS
  SAVE_FLOWS
END Options

BEGIN Dimensions
  MAXBOUND  6
END Dimensions

BEGIN PERIOD 1
  3  10  17   -150.00000
  3  12  14   -150.00000
  3  21  15   -150.00000
  3  27  11   -150.00000
  3  30  7   -150.00000
  3  35  13   -150.00000
END PERIOD

BEGIN PERIOD 2
  3  10  17   -150.00810
  3  12  14   -150.00810
  3  21  15   -150.00810
  3  27  11   -150.00810
  3  30  7   -150.00810
  3  35  13   -150.00810
END PERIOD

BEGIN PERIOD 3
  3  10  17   -150.08902
  3  12  14   -150.08902
  3  21  15   -150.08902
  3  27  11   -150.08902
  3  30  7   -150.08902
  3  35  13   -150.08902
END PERIOD

BEGIN PERIOD 4
  3  10  17   -150.08577
  3  12  14   -150.08577
  3  21  15   -150.08577
  3  27  11   -150.08577
  3  30  7   -150.08577
  3  35  13   -150.08577
END PERIOD

BEGIN PERIOD 5
  3  10  17   -150.12480
  3  12  14   -150.12480
  3  21  15   -150.12480
  3  27  11   -150.12480
  3  30  7   -150.12480
  3  35  13   -150.12480
END PERIOD

BEGIN PERIOD 6
  3  10  17   -150.13403
  3  12  14   -150.13403
  3  21  15   -150.13403
  3  27  11   -150.13403
  3  30  7   -150.13403
  3  35  13   -150.13403
END PERIOD

BEGIN PERIOD 7
  3  10  17   -150.01166
  3  12  14   -150.01166
  3  21  15   -150.01166
  3  27  11   -150.01166
  3  30  7   -150.01166
  3  35  13   -150.01166
END PERIOD

BEGIN PERIOD 8
  3  10  17   -150.10220
  3  12  14   -150.10220
  3  21  15   -150.10220
  3  27  11   -150.10220
  3  30  7   -150.10220
  3  35  13   -150.10220
END PERIOD

BEGIN PERIOD 9
  3  10  17   -150.04980
  3  12  14   -150.04980
  3  21  15   -150.04980
  3  27  11   -150.04980
  3  30  7   -150.04980
  3  35  13   -150.04980
END PERIOD

BEGIN PERIOD 10
  3  10  17   -150.03712
  3  12  14   -150.03712
  3  21  15   -150.03712
  3  27  11   -150.03712
  3  30  7   -150.03712
  3  35  13   -150.03712
END PERIOD

BEGIN PERIOD 11
  3  10  17   -150.14374
  3  12  14   -150.14374
  3  21  15   -150.14374
  3  27  11   -150.14374
  3  30  7   -150.14374
  3  35  13   -150.14374
END PERIOD

BEGIN PERIOD 12
  3  10  17   -150.10272
  3  12  14   -150.10272
  3  21  15   -150.10272
  3  27  11   -150.10272
  3  30  7   -150.10272
  3  35  13   -150.10272
END PERIOD

BEGIN PERIOD 13
  3  10  17   -150.13045
  3  12  14   -150.13045
  3  21  15   -150.13045
  3  27  11   -150.13045
  3  30  7   -150.13045
  3  35  13   -150.13045
END PERIOD

BEGIN PERIOD 14
  3  10  17   -150.12643
  3  12  14   -150.12643
  3  21  15   -150.12643
  3  27  11   -150.12643
  3  30  7   -150.12643
  3  35  13   -150.12643
END PERIOD

BEGIN PERIOD 15
  3  10  17   -150.03110
  3  12  14   -150.03110
  3  21  15   -150.03110
  3  27  11   -150.03110
  3  30  7   -150.03110
  3  35  13   -150.03110
END PERIOD

BEGIN PERIOD 16
  3  10  17   -150.03320
  3  12  14   -150.03320
  3  21  15   -150.03320
  3  27  11   -150.03320
  3  30  7   -150.03320
  3  35  13   -150.03320
END PERIOD

BEGIN PERIOD 17
  3  10  17   -150.02316
  3  12  14   -150.02316
  3  21  15   -150.02316
  3  27  11   -150.02316
  3  30  7   -150.02316
  3  35  13   -150.02316
END PERIOD

BEGIN PERIOD 18
  3  10  17   -150.14465
  3  12  14   -150.14465
  3  21  15   -150.14465
  3  27  11   -150.14465
  3  30  7   -150.14465
  3  35  13   -150.14465
END PERIOD

BEGIN PERIOD 19
  3  10  17   -150.05940
  3  12  14   -150.05940
  3  21  15   -150.05940
  3  27  11   -150.05940
  3  30  7   -150.05940
  3  35  13   -150.05940
END PERIOD

BEGIN PERIOD 20
  3  10  17   -150.12727
  3  12  14   -150.12727
  3  21  15   -150.12727
  3  27  11   -150.12727
  3  30  7   -150.12727
  3  35  13   -150.12727
END PERIOD

BEGIN PERIOD 21
  3  10  17   -150.11473
  3  12  14   -150.11473
  3  21  15   -150.11473
  3  27  11   -150.11473
  3  30  7   -150.11473
  3  35  13   -150.11473
END PERIOD

BEGIN PERIOD 22
  3  10  17   -150.04240
  3  12  14   -150.04240
  3  21  15   -150.04240
  3  27  11   -150.04240
  3  30  7   -150.04240
  3  35  13   -150.04240
END PERIOD

BEGIN PERIOD 23
  3  10  17   -150.02557
  3  12  14   -150.02557
  3  21  15   -150.02557
  3  27  11   -150.02557
  3  30  7   -150.02557
  3  35  13   -150.02557
END PERIOD

BEGIN PERIOD 24
  3  10  17   -150.11490
  3  12  14   -150.11490
  3  21  15   -150.11490
  3  27  11   -150.11490
  3  30  7   -150.11490
  3  35  13   -150.11490
END PERIOD

BEGIN PERIOD 25
  3  10  17   -150.14500
  3  12  14   -150.14500
  3  21  15   -150.14500
  3  27  11   -150.14500
  3  30  7   -150.14500
  3  35  13   -150.14500
END PERIOD
